0:0:0
                    3D
 Structure written by MMmdl.
 78 84  0  0  1  0            999 V2000
  -12.1150    7.3180   12.1060 C   0  0  0  0  0  0
  -11.8740    8.3790   14.3420 C   0  0  0  0  0  0
  -12.6160    7.9490   13.3140 N   0  0  0  0  0  0
  -10.7000    8.0430   14.5200 O   0  0  0  0  0  0
  -13.5770    8.2570   13.3010 H   0  0  0  0  0  0
  -12.5490    9.3700   15.2450 C   0  0  0  0  0  0
  -13.7350   10.0130   14.8340 C   0  0  0  0  0  0
  -14.2650   11.0820   15.5690 C   0  0  0  0  0  0
  -11.9400    9.7880   16.4440 C   0  0  0  0  0  0
  -12.4830   10.8580   17.1830 C   0  0  0  0  0  0
  -13.6490   11.5460   16.7530 C   0  0  0  0  0  0
  -14.1960   12.7210   17.4860 C   0  0  0  0  0  0
  -13.5920   13.1840   18.6750 C   0  0  0  0  0  0
  -14.0560   14.3240   19.3620 C   0  0  0  0  0  0
  -15.3350   13.4320   17.0360 C   0  0  0  0  0  0
  -15.7950   14.5860   17.6980 C   0  0  0  0  0  0
  -15.1460   15.0720   18.8490 C   0  0  0  0  0  0
  -15.5870   16.2930   19.4000 N   0  0  0  0  0  0
  -16.9350   16.3900   19.9510 C   0  0  0  0  0  0
  -17.4620   17.8400   19.8260 C   0  0  0  0  0  0
  -14.6520   17.2790   19.9380 C   0  0  0  0  0  0
  -15.2290   18.7010   19.7970 C   0  0  0  0  0  0
  -16.5360   18.7900   20.4610 N   0  0  0  0  0  0
  -17.0550   20.1490   20.3240 C   0  0  0  0  0  0
  -13.4770   14.6230   20.6160 N   0  0  0  0  0  0
  -12.1650   14.7450   20.8680 C   0  0  0  0  0  0
  -11.3160   14.8020   19.9780 O   0  0  0  0  0  0
  -14.1160   14.7800   21.3810 H   0  0  0  0  0  0
  -11.8790   14.8080   22.2960 C   0  0  0  0  0  0
  -11.0690   15.8790   22.8850 C   0  0  0  0  0  0
  -10.7900   15.8100   24.2130 C   0  0  0  0  0  0
  -11.2450   14.7160   25.0700 C   0  0  0  0  0  0
  -10.9860   14.6330   26.2710 O   0  0  0  0  0  0
  -11.9900   13.7780   24.4550 N   0  0  0  0  0  0
  -12.3040   13.8050   23.0960 C   0  0  0  0  0  0
  -12.3340   13.0010   25.0040 H   0  0  0  0  0  0
  -10.5980   17.0860   22.0700 C   0  0  0  0  0  0
  -10.0720   18.0360   22.8480 F   0  0  0  0  0  0
  -11.6120   17.6410   21.4040 F   0  0  0  0  0  0
   -9.6580   16.7270   21.1970 F   0  0  0  0  0  0
  -11.8910    5.8200   12.2990 C   0  0  0  0  0  0
  -11.2790    5.1800   11.0480 C   0  0  0  0  0  0
  -10.8800    3.7190   11.2750 C   0  0  0  0  0  0
   -9.6580    3.5790   12.1790 C   0  0  0  0  0  0
   -8.5280    3.6340   11.6920 O   0  0  0  0  0  0
   -9.8840    3.3140   13.4710 N   0  0  0  0  0  0
  -10.8440    3.2510   13.7810 H   0  0  0  0  0  0
   -8.8930    2.7070   14.3610 C   0  0  2  0  0  0
   -9.3190    1.2200   14.4790 C   0  0  0  0  0  0
  -10.4980    0.9680   14.7580 O   0  0  0  0  0  0
   -8.4310    0.2290   14.2300 N   0  0  0  0  0  0
   -8.7330   -1.2000   14.4190 C   0  0  1  0  0  0
   -7.4210   -1.9340   14.1060 C   0  0  0  0  0  0
   -6.6790   -0.9940   13.1770 C   0  0  2  0  0  0
   -7.1260    0.4090   13.5890 C   0  0  0  0  0  0
   -9.1960   -1.5470   15.8460 C   0  0  0  0  0  0
   -8.7960   -0.8970   16.8160 O   0  0  0  0  0  0
  -10.0170   -2.5940   15.9560 N   0  0  0  0  0  0
  -10.3130   -3.0550   15.1070 H   0  0  0  0  0  0
  -10.4840   -3.1730   17.2100 C   0  0  0  0  0  0
   -9.6060   -4.3050   17.7290 C   0  0  0  0  0  0
   -8.7510   -5.0370   16.8770 C   0  0  0  0  0  0
   -7.9880   -6.1050   17.3840 C   0  0  0  0  0  0
   -8.0590   -6.4690   18.7490 C   0  0  0  0  0  0
   -8.9010   -5.7150   19.5970 C   0  0  0  0  0  0
   -9.6690   -4.6490   19.0930 C   0  0  0  0  0  0
   -7.2920   -7.6080   19.2660 C   0  0  0  0  0  0
   -5.7040   -7.9150   18.5910 S   0  0  0  0  0  0
   -5.5530   -9.2930   19.6590 C   0  0  0  0  0  0
   -6.6070   -9.4890   20.4510 N   0  0  0  0  0  0
   -7.6080   -8.5380   20.2410 C   0  0  0  0  0  0
   -8.8560   -8.6580   21.0620 C   0  0  0  0  0  0
   -7.0880   -1.2170   11.8340 O   0  0  0  0  0  0
   -8.0280   -1.0780   11.7780 H   0  0  0  0  0  0
   -8.8270    3.4400   15.7510 C   0  0  0  0  0  0
   -8.5600    4.9470   15.5330 C   0  0  0  0  0  0
   -7.6400    2.8750   16.5670 C   0  0  0  0  0  0
  -10.1080    3.3060   16.6050 C   0  0  0  0  0  0
  1 41  1  0  0  0
  1  3  1  0  0  0
  2  4  2  0  0  0
  2  6  1  0  0  0
  2  3  1  0  0  0
  3  5  1  0  0  0
  6  9  1  0  0  0
  6  7  2  0  0  0
  7  8  1  0  0  0
  8 11  2  0  0  0
  9 10  2  0  0  0
 10 11  1  0  0  0
 11 12  1  0  0  0
 12 13  1  0  0  0
 12 15  2  0  0  0
 13 14  2  0  0  0
 14 25  1  0  0  0
 14 17  1  0  0  0
 15 16  1  0  0  0
 16 17  2  0  0  0
 17 18  1  0  0  0
 18 21  1  0  0  0
 18 19  1  0  0  0
 19 20  1  0  0  0
 20 23  1  0  0  0
 21 22  1  0  0  0
 22 23  1  0  0  0
 23 24  1  0  0  0
 25 26  1  0  0  0
 25 28  1  0  0  0
 26 29  1  0  0  0
 26 27  2  0  0  0
 29 30  1  0  0  0
 29 35  2  0  0  0
 30 31  2  0  0  0
 30 37  1  0  0  0
 31 32  1  0  0  0
 32 33  2  0  0  0
 32 34  1  0  0  0
 34 36  1  0  0  0
 34 35  1  0  0  0
 37 38  1  0  0  0
 37 39  1  0  0  0
 37 40  1  0  0  0
 41 42  1  0  0  0
 42 43  1  0  0  0
 43 44  1  0  0  0
 44 46  1  0  0  0
 44 45  2  0  0  0
 46 47  1  0  0  0
 46 48  1  0  0  0
 48 49  1  0  0  0
 48 75  1  0  0  0
 49 50  2  0  0  0
 49 51  1  0  0  0
 51 52  1  0  0  0
 51 55  1  0  0  0
 52 56  1  0  0  0
 52 53  1  0  0  0
 53 54  1  0  0  0
 54 73  1  0  0  0
 54 55  1  0  0  0
 56 58  1  0  0  0
 56 57  2  0  0  0
 58 60  1  0  0  0
 58 59  1  0  0  0
 60 61  1  0  0  0
 61 66  1  0  0  0
 61 62  2  0  0  0
 62 63  1  0  0  0
 63 64  2  0  0  0
 64 67  1  0  0  0
 64 65  1  0  0  0
 65 66  2  0  0  0
 67 71  2  0  0  0
 67 68  1  0  0  0
 68 69  1  0  0  0
 69 70  2  0  0  0
 70 71  1  0  0  0
 71 72  1  0  0  0
 73 74  1  0  0  0
 75 77  1  0  0  0
 75 78  1  0  0  0
 75 76  1  0  0  0
M  END
> <TORSDO>
F 19

> <SCORE>
-13.54

> <name>
0

> <ligand_id>
0

> <original_smiles>
[H]OC1([H])C([H])([H])N(C(=O)C([H])(N([H])C(=O)C([H])([H])C([H])([H])C([H])([H])C([H])([H])N([H])C(=O)c2c([H])c([H])c(-c3c([H])c([H])c(N4C([H])([H])C([H])([H])N(C([H])([H])[H])C([H])([H])C4([H])[H])c(N([H])C(=O)c4c(C(F)(F)F)c([H])c(=O)n([H])c4[H])c3[H])c([H])c2[H])C(C([H])([H])[H])(C([H])([H])[H])C([H])([H])[H])C([H])(C(=O)N([H])C([H])([H])c2c([H])c([H])c(-c3sc([H])nc3C([H])([H])[H])c([H])c2[H])C1([H])[H]

> <smiles>
[H]OC1([H])C([H])([H])N(C(=O)C([H])(N([H])C(=O)C([H])([H])C([H])([H])C([H])([H])C([H])([H])N([H])C(=O)c2c([H])c([H])c(-c3c([H])c([H])c(N4C([H])([H])C([H])([H])N(C([H])([H])[H])C([H])([H])C4([H])[H])c(N([H])C(=O)c4c(C(F)(F)F)c([H])c(=O)n([H])c4[H])c3[H])c([H])c2[H])C(C([H])([H])[H])(C([H])([H])[H])C([H])([H])[H])C([H])(C(=O)N([H])C([H])([H])c2c([H])c([H])c(-c3sc([H])nc3C([H])([H])[H])c([H])c2[H])C1([H])[H]

> <chiral flag>
1

> <version>
0

$$$$
