0:0:0
                    3D
 Structure written by MMmdl.
 65 71  0  0  1  0            999 V2000
   64.6010   38.3650   56.4050 C   0  0  0  0  0  0
   65.0870   37.1150   55.6460 C   0  0  0  0  0  0
   67.4940   37.1100   56.4110 C   0  0  0  0  0  0
   67.2680   37.4920   57.5600 O   0  0  0  0  0  0
   66.5400   37.0040   55.4750 N   0  0  0  0  0  0
   66.8460   36.6620   54.5740 H   0  0  0  0  0  0
   73.7550   33.7540   57.9520 N   0  0  0  0  0  0
   72.5700   35.6530   59.0500 C   0  0  0  0  0  0
   72.8090   34.6980   57.9210 C   0  0  0  0  0  0
   70.8440   35.9300   55.0580 C   0  0  0  0  0  0
   71.0200   35.4850   56.3520 C   0  0  0  0  0  0
   68.8340   36.6160   56.0310 C   0  0  0  0  0  0
   72.7120   33.7310   56.0480 C   0  0  0  0  0  0
   72.3180   33.4710   54.6010 C   0  0  1  0  0  0
   69.5730   36.5890   54.8590 C   0  0  0  0  0  0
   69.0920   37.1700   53.5450 C   0  0  0  0  0  0
   71.8910   35.7610   53.9920 C   0  0  0  0  0  0
   73.6950   33.1250   56.7260 N   0  0  0  0  0  0
   72.5580   34.6820   53.8110 N   0  0  0  0  0  0
   72.1150   34.7060   56.7610 N   0  0  0  0  0  0
   69.6980   35.9160   57.3720 S   0  0  0  0  0  0
   72.5400   39.3190   52.8170 C   0  0  0  0  0  0
   72.9400   39.1010   51.4860 C   0  0  0  0  0  0
   72.9830   37.7950   50.9660 C   0  0  0  0  0  0
   72.6310   36.7020   51.7790 C   0  0  0  0  0  0
   72.2350   36.9120   53.1200 C   0  0  0  0  0  0
   72.1940   38.2270   53.6340 C   0  0  0  0  0  0
   73.3910   40.4380   50.4970 Cl  0  0  0  0  0  0
   73.0730   32.2500   54.0010 C   0  0  0  0  0  0
   73.0880   32.0990   52.4720 C   0  0  0  0  0  0
   74.1190   31.7580   51.8840 O   0  0  0  0  0  0
   71.9120   32.3640   51.8750 O   0  0  0  0  0  0
   71.8370   32.3640   50.4560 C   0  0  0  0  0  0
   65.1100   39.6890   55.8190 C   0  0  0  0  0  0
   64.7460   40.8870   56.7010 C   0  0  0  0  0  0
   65.3050   42.1820   56.1140 C   0  0  0  0  0  0
   64.9300   43.4330   56.9180 C   0  0  0  0  0  0
   65.4400   44.6800   56.1970 C   0  0  0  0  0  0
   65.0320   46.0080   56.8530 C   0  0  0  0  0  0
   64.4540   47.3930   54.8970 C   0  0  0  0  0  0
   65.2830   47.0800   55.9000 N   0  0  0  0  0  0
   63.2630   47.0710   54.8820 O   0  0  0  0  0  0
   66.2340   47.4170   55.8180 H   0  0  0  0  0  0
   65.0840   48.1010   53.7000 C   0  0  0  0  0  0
   66.3300   47.4650   53.3910 O   0  0  0  0  0  0
   66.3150   46.5050   52.4040 C   0  0  0  0  0  0
   66.7100   45.1800   52.7170 C   0  0  0  0  0  0
   66.7870   44.1780   51.7140 C   0  0  0  0  0  0
   66.4760   44.4800   50.3690 C   0  0  0  0  0  0
   66.0890   45.7990   50.0840 C   0  0  0  0  0  0
   65.6990   46.4180   48.7920 C   0  0  0  0  0  0
   66.0100   46.7740   51.0510 C   0  0  0  0  0  0
   65.5880   48.0260   50.3640 C   0  0  0  0  0  0
   65.4160   47.7150   49.0530 N   0  0  0  0  0  0
   65.6260   45.8250   47.7110 O   0  0  0  0  0  0
   65.3940   49.1160   50.9120 O   0  0  0  0  0  0
   64.8720   48.6220   48.0230 C   0  0  1  0  0  0
   63.3310   48.7000   48.1060 C   0  0  0  0  0  0
   62.7680   49.6940   47.0820 C   0  0  0  0  0  0
   63.4990   51.0400   47.1580 C   0  0  0  0  0  0
   65.5080   50.0330   48.0090 C   0  0  0  0  0  0
   64.7640   51.0750   47.6100 N   0  0  0  0  0  0
   66.6880   50.1880   48.3410 O   0  0  0  0  0  0
   62.9240   52.0650   46.7880 O   0  0  0  0  0  0
   65.2100   51.9770   47.6270 H   0  0  0  0  0  0
  1  2  1  0  0  0
  1 34  1  0  0  0
  2  5  1  0  0  0
  3  4  2  0  0  0
  3  5  1  0  0  0
  3 12  1  0  0  0
  5  6  1  0  0  0
  7  9  2  0  0  0
  7 18  1  0  0  0
  8  9  1  0  0  0
  9 20  1  0  0  0
 10 11  2  0  0  0
 10 15  1  0  0  0
 10 17  1  0  0  0
 11 20  1  0  0  0
 11 21  1  0  0  0
 12 21  1  0  0  0
 12 15  2  0  0  0
 13 18  2  0  0  0
 13 20  1  0  0  0
 13 14  1  0  0  0
 14 29  1  0  0  0
 14 19  1  0  0  0
 15 16  1  0  0  0
 17 19  2  0  0  0
 17 26  1  0  0  0
 22 27  1  0  0  0
 22 23  2  0  0  0
 23 24  1  0  0  0
 23 28  1  0  0  0
 24 25  2  0  0  0
 25 26  1  0  0  0
 26 27  2  0  0  0
 29 30  1  0  0  0
 30 31  2  0  0  0
 30 32  1  0  0  0
 32 33  1  0  0  0
 34 35  1  0  0  0
 35 36  1  0  0  0
 36 37  1  0  0  0
 37 38  1  0  0  0
 38 39  1  0  0  0
 39 41  1  0  0  0
 40 41  1  0  0  0
 40 42  2  0  0  0
 40 44  1  0  0  0
 41 43  1  0  0  0
 44 45  1  0  0  0
 45 46  1  0  0  0
 46 47  1  0  0  0
 46 52  2  0  0  0
 47 48  2  0  0  0
 48 49  1  0  0  0
 49 50  2  0  0  0
 50 52  1  0  0  0
 50 51  1  0  0  0
 51 54  1  0  0  0
 51 55  2  0  0  0
 52 53  1  0  0  0
 53 56  2  0  0  0
 53 54  1  0  0  0
 54 57  1  0  0  0
 57 58  1  0  0  0
 57 61  1  0  0  0
 58 59  1  0  0  0
 59 60  1  0  0  0
 60 62  1  0  0  0
 60 64  2  0  0  0
 61 63  2  0  0  0
 61 62  1  0  0  0
 62 65  1  0  0  0
M  END
> <TORSDO>
F 18

> <SCORE>
-10.319

> <name>
0

> <ligand_id>
0

> <original_smiles>
[H]c1c([H])c(OC([H])([H])C(=O)N([H])C([H])([H])C([H])([H])C([H])([H])C([H])([H])C([H])([H])C([H])([H])C([H])([H])C([H])([H])N([H])C(=O)c2sc3c(c2C([H])([H])[H])C(c2c([H])c([H])c(Cl)c([H])c2[H])=NC([H])(C([H])([H])C(=O)OC([H])([H])[H])c2nnc(C([H])([H])[H])n2-3)c2c(c1[H])C(=O)N(C1([H])C(=O)N([H])C(=O)C([H])([H])C1([H])[H])C2=O

> <smiles>
[H]c1c([H])c(OC([H])([H])C(=O)N([H])C([H])([H])C([H])([H])C([H])([H])C([H])([H])C([H])([H])C([H])([H])C([H])([H])C([H])([H])N([H])C(=O)c2sc3c(c2C([H])([H])[H])C(c2c([H])c([H])c(Cl)c([H])c2[H])=NC([H])(C([H])([H])C(=O)OC([H])([H])[H])c2nnc(C([H])([H])[H])n2-3)c2c(c1[H])C(=O)N(C1([H])C(=O)N([H])C(=O)C([H])([H])C1([H])[H])C2=O

> <chiral flag>
1

> <version>
0

$$$$
