0:0:0
                    3D
 Structure written by MMmdl.
 82 89  0  0  1  0            999 V2000
  -13.5920   12.3680  -11.8910 C   0  0  0  0  0  0
  -12.5170   11.3640  -12.3450 C   0  0  0  0  0  0
  -12.4500   11.1300  -13.8660 C   0  0  0  0  0  0
  -11.2790   11.8150  -14.6080 C   0  0  0  0  0  0
  -10.4090   10.7690  -15.3240 C   0  0  0  0  0  0
   -9.0830   11.2860  -15.9470 C   0  0  0  0  0  0
   -8.0940   10.1180  -16.0680 C   0  0  0  0  0  0
   -7.7670    9.5980  -17.2620 N   0  0  0  0  0  0
   -7.8980    9.5210  -15.0260 O   0  0  0  0  0  0
   -6.8600    9.1480  -17.2770 H   0  0  0  0  0  0
   -8.7390    8.6960  -17.9090 C   0  0  2  0  0  0
   -8.8980    4.8900  -16.8780 C   0  0  2  0  0  0
  -10.2270    4.2710  -16.4300 C   0  0  0  0  0  0
  -10.9940    5.4300  -15.8290 C   0  0  2  0  0  0
  -10.5080    6.6660  -16.5830 C   0  0  0  0  0  0
   -8.3040    7.2230  -17.6360 C   0  0  0  0  0  0
   -9.1870    6.3210  -17.1230 N   0  0  0  0  0  0
   -7.1310    6.9160  -17.8750 O   0  0  0  0  0  0
   -8.3270    4.1150  -18.0810 C   0  0  0  0  0  0
   -7.4010    3.1950  -17.7890 N   0  0  0  0  0  0
   -8.7060    4.3500  -19.2290 O   0  0  0  0  0  0
   -7.1880    3.0420  -16.8130 H   0  0  0  0  0  0
   -6.5220    2.5320  -18.7450 C   0  0  0  0  0  0
   -5.1220    4.6590  -18.9150 C   0  0  0  0  0  0
   -2.6730    4.5960  -18.9030 C   0  0  0  0  0  0
   -2.7400    3.1820  -18.9050 C   0  0  0  0  0  0
   -3.9830    2.5160  -18.8860 C   0  0  0  0  0  0
   -5.1840    3.2510  -18.8630 C   0  0  0  0  0  0
   -3.8830    5.3220  -18.9250 C   0  0  0  0  0  0
    0.8730    6.0480  -18.2590 C   0  0  0  0  0  0
   -1.3880    5.3050  -18.8520 C   0  0  0  0  0  0
   -1.7000    7.2640  -20.5350 C   0  0  0  0  0  0
   -0.9680    6.4460  -19.5150 C   0  0  0  0  0  0
    0.3200    6.8560  -19.1630 N   0  0  0  0  0  0
   -0.1500    4.7140  -17.7650 S   0  0  0  0  0  0
  -10.6680    5.5860  -14.4560 O   0  0  0  0  0  0
   -9.7330    5.7440  -14.3830 H   0  0  0  0  0  0
   -8.9340    9.0320  -19.4290 C   0  0  0  0  0  0
   -9.6340   10.3940  -19.6140 C   0  0  0  0  0  0
   -7.5920    9.0910  -20.1950 C   0  0  0  0  0  0
   -9.8640    7.9720  -20.0660 C   0  0  0  0  0  0
  -13.7150   13.5800  -12.8180 C   0  0  0  0  0  0
  -15.1550   14.0460  -13.0350 C   0  0  0  0  0  0
  -15.2620   14.8940  -14.3100 C   0  0  0  0  0  0
  -16.4570   14.4990  -15.1910 C   0  0  0  0  0  0
  -15.7820   12.3780  -16.2950 C   0  0  0  0  0  0
  -16.0570   13.6860  -16.3380 N   0  0  0  0  0  0
  -15.5860   11.7720  -15.2410 O   0  0  0  0  0  0
  -16.0880   14.1200  -17.2480 H   0  0  0  0  0  0
  -15.6920   11.6610  -17.6150 C   0  0  0  0  0  0
  -14.6900   10.6850  -17.7470 C   0  0  0  0  0  0
  -14.5650    9.8780  -18.8910 C   0  0  0  0  0  0
  -15.4650   10.0440  -19.9770 C   0  0  0  0  0  0
  -16.4640   11.0360  -19.8480 C   0  0  0  0  0  0
  -16.5970   11.8530  -18.7010 C   0  0  0  0  0  0
  -15.4330    9.1860  -21.1950 C   0  0  0  0  0  0
  -16.5510    8.9530  -21.9370 C   0  0  0  0  0  0
  -15.4550    7.7670  -23.7520 C   0  0  0  0  0  0
  -14.2180    7.9420  -22.9610 C   0  0  0  0  0  0
  -14.1920    8.6120  -21.7450 C   0  0  0  0  0  0
  -12.8640    8.5190  -21.2910 C   0  0  0  0  0  0
  -12.1020    7.8290  -22.2070 C   0  0  0  0  0  0
  -12.5670    9.1750  -19.9580 C   0  0  0  0  0  0
  -17.8840    7.9700  -23.7800 C   0  0  0  0  0  0
  -16.5860    8.2200  -23.1500 N   0  0  0  0  0  0
  -12.9580    7.4690  -23.2610 N   0  0  0  0  0  0
  -13.5390    8.9270  -18.8950 N   0  0  0  0  0  0
  -15.4280    7.2180  -24.8620 O   0  0  0  0  0  0
  -12.7170    6.9450  -24.0960 H   0  0  0  0  0  0
  -13.6020    7.6490  -18.2920 C   0  0  0  0  0  0
  -14.5560    7.3470  -17.2830 C   0  0  0  0  0  0
  -14.6030    6.0450  -16.7550 C   0  0  0  0  0  0
  -13.7060    5.0780  -17.2310 C   0  0  0  0  0  0
  -12.7720    5.4690  -18.2070 C   0  0  0  0  0  0
  -13.7480    3.8040  -16.7690 F   0  0  0  0  0  0
  -15.4400    8.2620  -16.8200 F   0  0  0  0  0  0
  -12.7180    6.7170  -18.7260 N   0  0  0  0  0  0
  -17.7690   12.8450  -18.6930 C   0  0  0  0  0  0
  -16.3960   15.4040  -19.0540 C   0  0  0  0  0  0
  -16.8920   13.7830  -21.1060 O   0  0  0  0  0  0
  -18.8480   14.9560  -20.0040 O   0  0  0  0  0  0
  -17.5560   14.2600  -19.8810 S   0  0  0  0  0  0
  1  2  1  0  0  0
  1 42  1  0  0  0
  2  3  1  0  0  0
  3  4  1  0  0  0
  4  5  1  0  0  0
  5  6  1  0  0  0
  6  7  1  0  0  0
  7  9  2  0  0  0
  7  8  1  0  0  0
  8 10  1  0  0  0
  8 11  1  0  0  0
 11 16  1  0  0  0
 11 38  1  0  0  0
 12 19  1  0  0  0
 12 13  1  0  0  0
 12 17  1  0  0  0
 13 14  1  0  0  0
 14 36  1  0  0  0
 14 15  1  0  0  0
 15 17  1  0  0  0
 16 17  1  0  0  0
 16 18  2  0  0  0
 19 20  1  0  0  0
 19 21  2  0  0  0
 20 22  1  0  0  0
 20 23  1  0  0  0
 23 28  1  0  0  0
 24 28  1  0  0  0
 24 29  2  0  0  0
 25 31  1  0  0  0
 25 26  2  0  0  0
 25 29  1  0  0  0
 26 27  1  0  0  0
 27 28  2  0  0  0
 30 35  1  0  0  0
 30 34  2  0  0  0
 31 35  1  0  0  0
 31 33  2  0  0  0
 32 33  1  0  0  0
 33 34  1  0  0  0
 36 37  1  0  0  0
 38 39  1  0  0  0
 38 40  1  0  0  0
 38 41  1  0  0  0
 42 43  1  0  0  0
 43 44  1  0  0  0
 44 45  1  0  0  0
 45 47  1  0  0  0
 46 48  2  0  0  0
 46 47  1  0  0  0
 46 50  1  0  0  0
 47 49  1  0  0  0
 50 51  1  0  0  0
 50 55  2  0  0  0
 51 52  2  0  0  0
 52 53  1  0  0  0
 52 67  1  0  0  0
 53 54  1  0  0  0
 53 56  2  0  0  0
 54 55  1  0  0  0
 55 78  1  0  0  0
 56 57  1  0  0  0
 56 60  1  0  0  0
 57 65  1  0  0  0
 58 65  1  0  0  0
 58 59  1  0  0  0
 58 68  2  0  0  0
 59 60  2  0  0  0
 59 66  1  0  0  0
 60 61  1  0  0  0
 61 63  2  0  0  0
 61 62  1  0  0  0
 62 66  1  0  0  0
 63 67  1  0  0  0
 64 65  1  0  0  0
 66 69  1  0  0  0
 67 70  1  0  0  0
 70 71  1  0  0  0
 70 77  2  0  0  0
 71 76  1  0  0  0
 71 72  2  0  0  0
 72 73  1  0  0  0
 73 75  1  0  0  0
 73 74  2  0  0  0
 74 77  1  0  0  0
 78 82  1  0  0  0
 79 82  1  0  0  0
 80 82  2  0  0  0
 81 82  2  0  0  0
M  END
> <TORSDO>
F 23

> <SCORE>
-2.739

> <name>
0

> <ligand_id>
0

> <original_smiles>
[H]OC1([H])C([H])([H])N(C(=O)C([H])(N([H])C(=O)C([H])([H])C([H])([H])C([H])([H])C([H])([H])C([H])([H])C([H])([H])C([H])([H])C([H])([H])C([H])([H])C([H])([H])N([H])C(=O)c2c([H])c3c(c([H])c2C([H])([H])S(=O)(=O)C([H])([H])[H])-c2c([H])n(C([H])([H])[H])c(=O)c4c2c(c([H])n4[H])C([H])([H])N3c2nc([H])c(F)c([H])c2F)C(C([H])([H])[H])(C([H])([H])[H])C([H])([H])[H])C([H])(C(=O)N([H])C([H])([H])c2c([H])c([H])c(-c3sc([H])nc3C([H])([H])[H])c([H])c2[H])C1([H])[H]

> <smiles>
[H]OC1([H])C([H])([H])N(C(=O)C([H])(N([H])C(=O)C([H])([H])C([H])([H])C([H])([H])C([H])([H])C([H])([H])C([H])([H])C([H])([H])C([H])([H])C([H])([H])C([H])([H])N([H])C(=O)c2c([H])c3c(c([H])c2C([H])([H])S(=O)(=O)C([H])([H])[H])-c2c([H])n(C([H])([H])[H])c(=O)c4c2c(c([H])n4[H])C([H])([H])N3c2nc([H])c(F)c([H])c2F)C(C([H])([H])[H])(C([H])([H])[H])C([H])([H])[H])C([H])(C(=O)N([H])C([H])([H])c2c([H])c([H])c(-c3sc([H])nc3C([H])([H])[H])c([H])c2[H])C1([H])[H]

> <chiral flag>
1

> <version>
0

$$$$
