0000
                    3D
 Structure written by MMmdl.
133139  0  0  1  0            999 V2000
  -12.2846   10.0173   16.9243 C   0  0  0  0  0  0
  -13.8985   10.5849   15.2112 C   0  0  0  0  0  0
   -9.7879   -5.6491   18.9785 C   0  0  0  0  0  0
  -10.4278   -6.1066   21.2676 C   0  0  0  0  0  0
  -14.7961   12.9046   16.8376 C   0  0  0  0  0  0
  -11.8975    8.9044   16.1878 C   0  0  0  0  0  0
  -13.5017    9.4703   14.4776 C   0  0  0  0  0  0
   -8.9025   -4.6729   19.4243 C   0  0  0  0  0  0
   -9.5405   -5.1271   21.7073 C   0  0  0  0  0  0
  -15.2140   14.0027   17.5789 C   0  0  0  0  0  0
  -13.1024   12.4140   18.4815 C   0  0  0  0  0  0
  -12.8143   -8.9499   18.0610 C   0  0  0  0  0  0
  -13.2975   10.8792   16.4529 C   0  0  0  0  0  0
  -10.5598   -6.3772   19.8985 C   0  0  0  0  0  0
  -13.7362   12.0936   17.2697 C   0  0  0  0  0  0
  -12.5086    8.6220   14.9599 C   0  0  0  0  0  0
   -8.7784   -4.4098   20.7885 C   0  0  0  0  0  0
  -14.5847   14.3492   18.7811 C   0  0  0  0  0  0
  -13.5156   13.5291   19.2495 C   0  0  0  0  0  0
  -11.5200   -7.4464   19.4051 C   0  0  0  0  0  0
  -12.3778   -8.3420   20.1132 C   0  0  0  0  0  0
  -10.2803   13.3817   24.5522 C   0  0  0  0  0  0
  -12.3069   14.4413   23.1300 C   0  0  0  0  0  0
  -11.5188   13.5815   22.4793 C   0  0  0  0  0  0
  -10.3989   12.9988   23.2392 C   0  0  0  0  0  0
  -11.1958   14.3322   25.2445 C   0  0  0  0  0  0
  -12.1035    7.3934   14.1550 C   0  0  0  0  0  0
  -11.7978   13.2188   21.0594 C   0  0  0  0  0  0
   -9.2436   -1.3526   21.1339 C   0  0  0  0  0  0
  -10.2128    0.0223   18.5017 C   0  0  0  0  0  0
  -10.1850    1.9676   16.0100 C   0  0  0  0  0  0
   -9.8259    0.9326   22.1036 C   0  0  0  0  0  0
  -16.3196   16.1646   19.2396 C   0  0  0  0  0  0
  -14.1110   16.3917   20.2387 C   0  0  0  0  0  0
  -10.9909    1.7226   20.1756 C   0  0  0  0  0  0
  -16.2689   17.5968   18.6873 C   0  0  0  0  0  0
  -14.0861   17.8949   19.8501 C   0  0  0  0  0  0
   -9.2989    0.1699   20.8760 C   0  0  2  0  0  0
  -10.3593    2.2083   21.4844 C   0  0  2  0  0  0
  -12.5955   -8.5023   21.6056 C   0  0  0  0  0  0
  -13.6398   -0.2533   16.5165 C   0  0  0  0  0  0
  -11.9007   -2.0441   16.7383 C   0  0  0  0  0  0
  -13.0593   -1.1311   18.7813 C   0  0  0  0  0  0
  -15.5135   19.9401   19.3291 C   0  0  0  0  0  0
   -7.7986   -3.3391   21.2750 C   0  0  0  0  0  0
   -9.8297    2.2866   14.5441 C   0  0  0  0  0  0
   -8.8904    3.5005   14.2851 C   0  0  0  0  0  0
   -9.3881    4.8963   14.7326 C   0  0  0  0  0  0
  -10.7084    5.3713   14.0965 C   0  0  0  0  0  0
  -11.3784    0.3814   17.5296 C   0  0  2  0  0  0
   -9.3953   11.9964   22.6221 C   0  0  0  0  0  0
  -12.4647   -0.7549   17.3968 C   0  0  0  0  0  0
  -13.0698   -9.1456   19.3184 N   0  0  0  0  0  0
  -12.1854   14.8241   24.4273 N   0  0  0  0  0  0
  -15.0294   15.4850   19.5056 N   0  0  0  0  0  0
  -10.2001    0.5478   19.7622 N   0  0  0  0  0  0
  -12.9336   13.8092   20.5492 N   0  0  0  0  0  0
  -11.1620    6.6120   14.7215 N   0  0  0  0  0  0
   -8.0600   -1.9451   20.8918 N   0  0  0  0  0  0
  -10.8680    0.8292   16.2259 N   0  0  0  0  0  0
  -15.5117   18.4459   19.7181 N   0  3  0  0  0  0
  -11.0962   14.6549   26.4218 O   0  0  0  0  0  0
  -12.6246    7.1492   13.0639 O   0  0  0  0  0  0
  -11.0765   12.4649   20.4192 O   0  0  0  0  0  0
  -10.2380   -1.9221   21.5853 O   0  0  0  0  0  0
   -9.3560   -0.7690   18.0984 O   0  0  0  0  0  0
   -9.8542    2.7325   16.9164 O   0  0  0  0  0  0
   -9.3221    3.1478   21.2636 O   0  0  0  0  0  0
   -8.7394   12.5494   21.5977 F   0  0  0  0  0  0
   -8.4637   11.6406   23.5119 F   0  0  0  0  0  0
  -10.0103   10.8734   22.2470 F   0  0  0  0  0  0
  -11.6951   -7.7228   17.6763 S   0  0  0  0  0  0
  -11.8032   10.2017   17.8663 H   0  0  0  0  0  0
  -14.6707   11.2153   14.8134 H   0  0  0  0  0  0
   -9.8735   -5.8426   17.9203 H   0  0  0  0  0  0
  -11.0082   -6.6484   21.9853 H   0  0  0  0  0  0
  -15.3083   12.6835   15.9190 H   0  0  0  0  0  0
  -11.1250    8.2581   16.5754 H   0  0  0  0  0  0
  -13.9798    9.2596   13.5296 H   0  0  0  0  0  0
   -8.3138   -4.1227   18.7095 H   0  0  0  0  0  0
   -9.4436   -4.9266   22.7632 H   0  0  0  0  0  0
  -16.0290   14.6002   17.2024 H   0  0  0  0  0  0
  -12.3290   11.7831   18.8307 H   0  0  0  0  0  0
  -13.2758   -9.5327   17.2771 H   0  0  0  0  0  0
   -9.4764   12.9681   25.1429 H   0  0  0  0  0  0
  -13.1597   14.9273   22.6840 H   0  0  0  0  0  0
   -9.0416    1.0861   22.8467 H   0  0  0  0  0  0
  -10.6397    0.3794   22.5753 H   0  0  0  0  0  0
  -17.0018   15.5619   18.6441 H   0  0  0  0  0  0
  -16.8361   16.2018   20.2027 H   0  0  0  0  0  0
  -13.0739   16.1037   20.0853 H   0  0  0  0  0  0
  -14.3068   16.2777   21.2963 H   0  0  0  0  0  0
  -10.9854    2.5153   19.4259 H   0  0  0  0  0  0
  -12.0273    1.4226   20.3410 H   0  0  0  0  0  0
  -15.7598   17.6664   17.7214 H   0  0  0  0  0  0
  -17.2726   18.0191   18.5973 H   0  0  0  0  0  0
  -13.5960   18.0531   18.8857 H   0  0  0  0  0  0
  -13.5658   18.4960   20.5993 H   0  0  0  0  0  0
   -8.2931    0.5300   20.6643 H   0  0  0  0  0  0
  -11.1152    2.6612   22.1289 H   0  0  0  0  0  0
  -13.2849   -9.3131   21.8412 H   0  0  0  0  0  0
  -13.0236   -7.6046   22.0524 H   0  0  0  0  0  0
  -11.6715   -8.7339   22.1296 H   0  0  0  0  0  0
  -14.4359   -0.9962   16.4444 H   0  0  0  0  0  0
  -13.3269   -0.0292   15.4963 H   0  0  0  0  0  0
  -14.0876    0.6544   16.9240 H   0  0  0  0  0  0
  -12.6825   -2.7895   16.5866 H   0  0  0  0  0  0
  -11.1373   -2.5188   17.3525 H   0  0  0  0  0  0
  -11.4582   -1.8456   15.7622 H   0  0  0  0  0  0
  -13.8649   -1.8602   18.6870 H   0  0  0  0  0  0
  -13.4728   -0.2594   19.2890 H   0  0  0  0  0  0
  -12.3140   -1.5760   19.4423 H   0  0  0  0  0  0
  -14.9050   20.4712   20.0672 H   0  0  0  0  0  0
  -16.5494   20.2831   19.3671 H   0  0  0  0  0  0
  -15.1034   20.0452   18.3237 H   0  0  0  0  0  0
   -6.8191   -3.5932   20.8758 H   0  0  0  0  0  0
   -7.6830   -3.3927   22.3579 H   0  0  0  0  0  0
   -9.3606    1.3961   14.1237 H   0  0  0  0  0  0
  -10.7592    2.4145   13.9898 H   0  0  0  0  0  0
   -7.9290    3.3034   14.7644 H   0  0  0  0  0  0
   -8.6709    3.5405   13.2164 H   0  0  0  0  0  0
   -9.4815    4.9205   15.8183 H   0  0  0  0  0  0
   -8.6094    5.6266   14.5049 H   0  0  0  0  0  0
  -10.5803    5.4827   13.0160 H   0  0  0  0  0  0
  -11.4869    4.6209   14.2413 H   0  0  0  0  0  0
  -11.9103    1.2488   17.9171 H   0  0  0  0  0  0
  -12.8373   15.4722   24.8431 H   0  0  0  0  0  0
  -13.4114   14.4945   21.1103 H   0  0  0  0  0  0
  -10.7687    6.8564   15.6162 H   0  0  0  0  0  0
   -7.2948   -1.4131   20.5013 H   0  0  0  0  0  0
  -11.0817    0.2239   15.4472 H   0  0  0  0  0  0
  -15.9659   18.3511   20.6205 H   0  0  0  0  0  0
   -8.7102    3.1098   22.0046 H   0  0  0  0  0  0
  1  6  2  0  0  0
  1 13  1  0  0  0
  1 73  1  0  0  0
  2  7  1  0  0  0
  2 13  2  0  0  0
  2 74  1  0  0  0
  3  8  2  0  0  0
  3 14  1  0  0  0
  3 75  1  0  0  0
  4  9  1  0  0  0
  4 14  2  0  0  0
  4 76  1  0  0  0
  5 10  2  0  0  0
  5 15  1  0  0  0
  5 77  1  0  0  0
  6 16  1  0  0  0
  6 78  1  0  0  0
  7 16  2  0  0  0
  7 79  1  0  0  0
  8 17  1  0  0  0
  8 80  1  0  0  0
  9 17  2  0  0  0
  9 81  1  0  0  0
 10 18  1  0  0  0
 10 82  1  0  0  0
 11 15  2  0  0  0
 11 19  1  0  0  0
 11 83  1  0  0  0
 12 53  2  0  0  0
 12 72  1  0  0  0
 12 84  1  0  0  0
 13 15  1  0  0  0
 14 20  1  0  0  0
 16 27  1  0  0  0
 17 45  1  0  0  0
 18 19  2  0  0  0
 18 55  1  0  0  0
 19 57  1  0  0  0
 20 21  2  0  0  0
 20 72  1  0  0  0
 21 40  1  0  0  0
 21 53  1  0  0  0
 22 25  2  0  0  0
 22 26  1  0  0  0
 22 85  1  0  0  0
 23 24  2  0  0  0
 23 54  1  0  0  0
 23 86  1  0  0  0
 24 25  1  0  0  0
 24 28  1  0  0  0
 25 51  1  0  0  0
 26 54  1  0  0  0
 26 62  2  0  0  0
 27 58  1  0  0  0
 27 63  2  0  0  0
 28 57  1  0  0  0
 28 64  2  0  0  0
 29 38  1  0  0  0
 29 59  1  0  0  0
 29 65  2  0  0  0
 30 50  1  0  0  0
 30 56  1  0  0  0
 30 66  2  0  0  0
 31 46  1  0  0  0
 31 60  1  0  0  0
 31 67  2  0  0  0
 32 38  1  0  0  0
 32 39  1  0  0  0
 32 87  1  0  0  0
 32 88  1  0  0  0
 33 36  1  0  0  0
 33 55  1  0  0  0
 33 89  1  0  0  0
 33 90  1  0  0  0
 34 37  1  0  0  0
 34 55  1  0  0  0
 34 91  1  0  0  0
 34 92  1  0  0  0
 35 39  1  0  0  0
 35 56  1  0  0  0
 35 93  1  0  0  0
 35 94  1  0  0  0
 36 61  1  0  0  0
 36 95  1  0  0  0
 36 96  1  0  0  0
 37 61  1  0  0  0
 37 97  1  0  0  0
 37 98  1  0  0  0
 38 56  1  0  0  0
 38 99  1  0  0  0
 39 68  1  0  0  0
 39100  1  0  0  0
 40101  1  0  0  0
 40102  1  0  0  0
 40103  1  0  0  0
 41 52  1  0  0  0
 41104  1  0  0  0
 41105  1  0  0  0
 41106  1  0  0  0
 42 52  1  0  0  0
 42107  1  0  0  0
 42108  1  0  0  0
 42109  1  0  0  0
 43 52  1  0  0  0
 43110  1  0  0  0
 43111  1  0  0  0
 43112  1  0  0  0
 44 61  1  0  0  0
 44113  1  0  0  0
 44114  1  0  0  0
 44115  1  0  0  0
 45 59  1  0  0  0
 45116  1  0  0  0
 45117  1  0  0  0
 46 47  1  0  0  0
 46118  1  0  0  0
 46119  1  0  0  0
 47 48  1  0  0  0
 47120  1  0  0  0
 47121  1  0  0  0
 48 49  1  0  0  0
 48122  1  0  0  0
 48123  1  0  0  0
 49 58  1  0  0  0
 49124  1  0  0  0
 49125  1  0  0  0
 50 52  1  0  0  0
 50 60  1  0  0  0
 50126  1  0  0  0
 51 69  1  0  0  0
 51 70  1  0  0  0
 51 71  1  0  0  0
 54127  1  0  0  0
 57128  1  0  0  0
 58129  1  0  0  0
 59130  1  0  0  0
 60131  1  0  0  0
 61132  1  0  0  0
 68133  1  0  0  0
M  CHG  1  61   1
M  END
> <s_m_entry_id>
22

> <s_m_entry_name>
0000.1

> <s_m_Source_Path>
/mnt/home/boqing/Schrodinger_Projects/7Q2J

> <s_m_Source_File>
0000.sdf

> <i_m_Source_File_Index>
1

> <s_m_job_name>
glide-dock_SP_0000_h

> <s_i_glide_gridfile>
glide-grid_crystal_ligand

> <i_i_glide_lignum>
1

> <i_i_glide_rotatable_bonds>
24

> <r_i_docking_score>
-9.56198352376635

> <r_i_glide_ligand_efficiency>
-0.132805326718977

> <r_i_glide_ligand_efficiency_sa>
-0.552492422658926

> <r_i_glide_ligand_efficiency_ln>
-1.8121259348411

> <r_i_glide_gscore>
-9.56198352376635

> <r_i_glide_evdw>
-71.1906890869141

> <r_i_glide_ecoul>
-7.69744300842285

> <r_i_glide_energy>
-78.8881320953369

> <r_i_glide_einternal>
12.4416818618774

> <r_i_glide_emodel>
-128.576150174336

> <r_i_glide_intrahb_reward>
0

> <i_i_glide_confnum>
914

> <i_i_glide_posenum>
122

> <r_i_glide_eff_state_penalty>
0

> <Batch ID>
0

> <Smiles>
Cc1ncsc1-c1ccc(CNC(=O)[C@@H]2C[C@@H](O)CN2C(=O)[C@@H](N[101C](=O)[100CH2]CCCN[101C](=O)[100c]2ccc(-c3ccc(N4CCN(C)CC4)c(NC(=O)c4c[nH]c(=O)cc4C(F)(F)F)c3)cc2)C(C)(C)C)cc1

> <Shape>
0.305

> <Color>
0.189

> <Negative vol penalty>
0

> <chiral flag>
1

> <version>
0

> <r_i_glide_lipo>
-4.24910550413965

> <r_i_glide_hbond>
-0.157947427860006

> <r_i_glide_metal>
0

> <r_i_glide_rewards>
-0.5958525170567

> <r_i_glide_erotb>
0.233242934127985

> <r_i_glide_esite>
-0.0781701032288421

> <s_m_subgroup_title>
glide-dock_SP_0000_h_pv1

> <s_m_subgroupid>
glide-dock_SP_0000_h_pv1

> <b_m_subgroup_collapsed>
0

$$$$
