0:0:0
                    3D
 Structure written by MMmdl.
 92 99  0  0  1  0            999 V2000
   -4.6580    7.3640   12.2850 C   0  0  0  0  0  0
   -4.7960    7.3680   13.6180 N   0  0  0  0  0  0
   -5.4040    8.0090   11.5450 O   0  0  0  0  0  0
   -4.1340    6.8410   14.1720 H   0  0  0  0  0  0
   -5.9840    7.8890   14.2890 C   0  0  0  0  0  0
   -5.9700    7.6640   15.8190 C   0  0  0  0  0  0
   -7.2690    7.2250   16.3390 N   0  0  0  0  0  0
   -7.4970    7.5740   17.7460 C   0  0  0  0  0  0
   -8.8730    7.0780   18.2300 C   0  0  0  0  0  0
   -8.9880    5.6280   18.0590 N   0  0  0  0  0  0
   -8.7930    5.2850   16.6580 C   0  0  0  0  0  0
   -7.4270    5.7760   16.1740 C   0  0  0  0  0  0
  -10.2170    5.0770   18.5920 C   0  0  0  0  0  0
  -11.4610    5.4730   17.8150 C   0  0  0  0  0  0
  -12.1840    6.6040   18.2230 C   0  0  0  0  0  0
  -13.3850    6.9900   17.5850 C   0  0  0  0  0  0
  -13.8240    6.2250   16.4800 C   0  0  0  0  0  0
  -13.0880    5.1050   16.0390 C   0  0  0  0  0  0
  -11.9110    4.7220   16.7090 C   0  0  0  0  0  0
  -14.1360    8.1550   18.1020 C   0  0  0  0  0  0
  -13.9700    8.5380   19.4480 C   0  0  0  0  0  0
  -14.6030    9.6660   19.9930 C   0  0  0  0  0  0
  -15.5050   10.4210   19.1960 C   0  0  0  0  0  0
  -15.6960   10.0280   17.8440 C   0  0  0  0  0  0
  -15.0150    8.9180   17.3040 C   0  0  0  0  0  0
  -16.1600   11.5540   19.7350 N   0  0  0  0  0  0
  -17.3420   12.0570   19.0260 C   0  0  0  0  0  0
  -18.0340   13.1830   19.8190 C   0  0  0  0  0  0
  -17.0860   14.2660   20.0910 N   0  0  0  0  0  0
  -15.9770   13.7380   20.8810 C   0  0  0  0  0  0
  -15.2550   12.6590   20.0600 C   0  0  0  0  0  0
  -17.7530   15.2900   20.8700 C   0  0  0  0  0  0
  -14.3410    9.9600   21.3650 N   0  0  0  0  0  0
  -13.1310   10.2700   21.8890 C   0  0  0  0  0  0
  -12.1420   10.4640   21.1790 O   0  0  0  0  0  0
  -15.1430   10.0120   21.9760 H   0  0  0  0  0  0
  -13.1260   10.3310   23.3590 C   0  0  0  0  0  0
  -13.6790    9.3080   24.0460 C   0  0  0  0  0  0
  -13.6680    9.2690   25.4400 N   0  0  0  0  0  0
  -13.1200   10.2220   26.2140 C   0  0  0  0  0  0
  -12.5000   11.3320   25.4860 C   0  0  0  0  0  0
  -12.4720   11.4060   24.1240 C   0  0  0  0  0  0
  -13.1580   10.1330   27.4460 O   0  0  0  0  0  0
  -14.1080    8.4790   25.8930 H   0  0  0  0  0  0
  -11.8270   12.6130   23.4390 C   0  0  0  0  0  0
  -11.4930   13.5610   24.3220 F   0  0  0  0  0  0
  -10.7110   12.2500   22.8040 F   0  0  0  0  0  0
  -12.6640   13.1640   22.5570 F   0  0  0  0  0  0
   -3.5560    6.4820   11.6830 C   0  0  0  0  0  0
   -4.0760    5.4150   10.6800 C   0  0  0  0  0  0
   -5.1420    4.4360   11.2360 C   0  0  0  0  0  0
   -6.0160    3.7860   10.1410 C   0  0  0  0  0  0
   -7.1180    2.8670   10.7140 C   0  0  0  0  0  0
   -8.0360    2.2390    9.6340 C   0  0  0  0  0  0
   -9.0610    1.2310   10.2070 C   0  0  0  0  0  0
  -10.4380    1.8350   10.5540 C   0  0  0  0  0  0
  -11.4650    0.7940   11.0710 C   0  0  0  0  0  0
  -11.4250    0.3190   13.5320 N   0  0  0  0  0  0
  -11.9030    1.0540   12.5190 C   0  0  0  0  0  0
  -12.7100    1.9550   12.7380 O   0  0  0  0  0  0
  -11.7920    0.5320   14.4470 H   0  0  0  0  0  0
  -10.4670   -0.7900   13.5150 C   0  0  2  0  0  0
  -11.7080   -4.5280   13.2460 C   0  0  1  0  0  0
  -11.0220   -3.2310   13.0150 N   0  0  0  0  0  0
  -10.1860   -3.2990   11.8170 C   0  0  0  0  0  0
  -10.5080   -4.6490   11.1780 C   0  0  1  0  0  0
  -11.0470   -5.5190   12.2900 C   0  0  0  0  0  0
  -11.2500   -2.1140   13.7570 C   0  0  0  0  0  0
  -12.0950   -2.1250   14.6550 O   0  0  0  0  0  0
  -11.5480   -5.0650   14.6780 C   0  0  0  0  0  0
  -12.6100   -5.6350   15.2530 N   0  0  0  0  0  0
  -10.4550   -4.9840   15.2380 O   0  0  0  0  0  0
  -13.4890   -5.6430   14.7550 H   0  0  0  0  0  0
  -12.5650   -6.3130   16.5440 C   0  0  0  0  0  0
  -11.5760  -10.5460   16.1570 C   0  0  0  0  0  0
  -11.9380   -9.7930   15.0230 C   0  0  0  0  0  0
  -11.8310   -8.5270   17.5370 C   0  0  0  0  0  0
  -12.2490   -8.4290   15.1440 C   0  0  0  0  0  0
  -12.2030   -7.7840   16.4020 C   0  0  0  0  0  0
  -11.5210   -9.8930   17.4100 C   0  0  0  0  0  0
  -11.2880  -11.9810   16.0570 C   0  0  0  0  0  0
  -11.6530  -12.9930   16.9160 C   0  0  0  0  0  0
  -10.4720  -14.2080   15.4040 C   0  0  0  0  0  0
  -10.3480  -12.6010   14.7170 S   0  0  0  0  0  0
  -11.1770  -14.2550   16.5360 N   0  0  0  0  0  0
  -12.4800  -12.8690   18.1590 C   0  0  0  0  0  0
  -11.5200   -4.4440   10.2130 O   0  0  0  0  0  0
  -12.2680   -4.0420   10.6410 H   0  0  0  0  0  0
   -9.3920   -0.5230   14.6250 C   0  0  0  0  0  0
  -10.0160   -0.2280   16.0110 C   0  0  0  0  0  0
   -8.4430   -1.7330   14.7620 C   0  0  0  0  0  0
   -8.5310    0.6980   14.2360 C   0  0  0  0  0  0
  1  2  1  0  0  0
  1  3  2  0  0  0
  1 49  1  0  0  0
  2  4  1  0  0  0
  2  5  1  0  0  0
  5  6  1  0  0  0
  6  7  1  0  0  0
  7  8  1  0  0  0
  7 12  1  0  0  0
  8  9  1  0  0  0
  9 10  1  0  0  0
 10 13  1  0  0  0
 10 11  1  0  0  0
 11 12  1  0  0  0
 13 14  1  0  0  0
 14 15  1  0  0  0
 14 19  2  0  0  0
 15 16  2  0  0  0
 16 20  1  0  0  0
 16 17  1  0  0  0
 17 18  2  0  0  0
 18 19  1  0  0  0
 20 21  1  0  0  0
 20 25  2  0  0  0
 21 22  2  0  0  0
 22 33  1  0  0  0
 22 23  1  0  0  0
 23 26  1  0  0  0
 23 24  2  0  0  0
 24 25  1  0  0  0
 26 31  1  0  0  0
 26 27  1  0  0  0
 27 28  1  0  0  0
 28 29  1  0  0  0
 29 32  1  0  0  0
 29 30  1  0  0  0
 30 31  1  0  0  0
 33 34  1  0  0  0
 33 36  1  0  0  0
 34 37  1  0  0  0
 34 35  2  0  0  0
 37 38  2  0  0  0
 37 42  1  0  0  0
 38 39  1  0  0  0
 39 44  1  0  0  0
 39 40  1  0  0  0
 40 43  2  0  0  0
 40 41  1  0  0  0
 41 42  2  0  0  0
 42 45  1  0  0  0
 45 46  1  0  0  0
 45 47  1  0  0  0
 45 48  1  0  0  0
 49 50  1  0  0  0
 50 51  1  0  0  0
 51 52  1  0  0  0
 52 53  1  0  0  0
 53 54  1  0  0  0
 54 55  1  0  0  0
 55 56  1  0  0  0
 56 57  1  0  0  0
 57 59  1  0  0  0
 58 61  1  0  0  0
 58 59  1  0  0  0
 58 62  1  0  0  0
 59 60  2  0  0  0
 62 68  1  0  0  0
 62 89  1  0  0  0
 63 70  1  0  0  0
 63 64  1  0  0  0
 63 67  1  0  0  0
 64 68  1  0  0  0
 64 65  1  0  0  0
 65 66  1  0  0  0
 66 87  1  0  0  0
 66 67  1  0  0  0
 68 69  2  0  0  0
 70 72  2  0  0  0
 70 71  1  0  0  0
 71 74  1  0  0  0
 71 73  1  0  0  0
 74 79  1  0  0  0
 75 80  1  0  0  0
 75 76  2  0  0  0
 75 81  1  0  0  0
 76 78  1  0  0  0
 77 79  1  0  0  0
 77 80  2  0  0  0
 78 79  2  0  0  0
 81 82  2  0  0  0
 81 84  1  0  0  0
 82 86  1  0  0  0
 82 85  1  0  0  0
 83 85  2  0  0  0
 83 84  1  0  0  0
 87 88  1  0  0  0
 89 91  1  0  0  0
 89 90  1  0  0  0
 89 92  1  0  0  0
M  END
> <TORSDO>
F 28

> <SCORE>
-7.834

> <name>
0

> <ligand_id>
0

> <original_smiles>
[H]OC1([H])C([H])([H])N(C(=O)C([H])(N([H])C(=O)C([H])([H])C([H])([H])C([H])([H])C([H])([H])C([H])([H])C([H])([H])C([H])([H])C([H])([H])C([H])([H])C(=O)N([H])C([H])([H])C([H])([H])N2C([H])([H])C([H])([H])N(C([H])([H])c3c([H])c([H])c([H])c(-c4c([H])c([H])c(N5C([H])([H])C([H])([H])N(C([H])([H])[H])C([H])([H])C5([H])[H])c(N([H])C(=O)c5c(C(F)(F)F)c([H])c(=O)n([H])c5[H])c4[H])c3[H])C([H])([H])C2([H])[H])C(C([H])([H])[H])(C([H])([H])[H])C([H])([H])[H])C([H])(C(=O)N([H])C([H])([H])c2c([H])c([H])c(-c3sc([H])nc3C([H])([H])[H])c([H])c2[H])C1([H])[H]

> <smiles>
[H]OC1([H])C([H])([H])N(C(=O)C([H])(N([H])C(=O)C([H])([H])C([H])([H])C([H])([H])C([H])([H])C([H])([H])C([H])([H])C([H])([H])C([H])([H])C([H])([H])C(=O)N([H])C([H])([H])C([H])([H])N2C([H])([H])C([H])([H])N(C([H])([H])c3c([H])c([H])c([H])c(-c4c([H])c([H])c(N5C([H])([H])C([H])([H])N(C([H])([H])[H])C([H])([H])C5([H])[H])c(N([H])C(=O)c5c(C(F)(F)F)c([H])c(=O)n([H])c5[H])c4[H])c3[H])C([H])([H])C2([H])[H])C(C([H])([H])[H])(C([H])([H])[H])C([H])([H])[H])C([H])(C(=O)N([H])C([H])([H])c2c([H])c([H])c(-c3sc([H])nc3C([H])([H])[H])c([H])c2[H])C1([H])[H]

> <chiral flag>
1

> <version>
0

$$$$
