0:0:0
                    3D
 Structure written by MMmdl.
 86 94  0  0  1  0            999 V2000
   25.5450   43.2730   -3.6120 C   0  0  0  0  0  0
   23.2340   44.6610   -3.3930 C   0  0  0  0  0  0
   25.5150   44.5900   -3.0910 C   0  0  0  0  0  0
   23.2590   43.3510   -3.9260 C   0  0  0  0  0  0
   24.3580   45.2850   -2.9740 N   0  0  0  0  0  0
   24.4160   42.6450   -4.0300 N   0  0  0  0  0  0
   26.7810   45.3090   -2.6440 C   0  0  0  0  0  0
   27.9020   45.1150   -3.5020 O   0  0  0  0  0  0
   25.2460   47.2790   -9.7430 C   0  0  0  0  0  0
   27.0880   47.1590   -6.5190 C   0  0  0  0  0  0
   27.5910   47.9120   -9.2940 C   0  0  2  0  0  0
   28.3850   47.5110   -6.9120 C   0  0  0  0  0  0
   29.2890   46.2070   -5.0730 C   0  0  0  0  0  0
   28.5000   48.3970   -8.1350 C   0  0  0  0  0  0
   25.9330   47.6520   -7.3660 C   0  0  0  0  0  0
   26.8810   46.3560   -5.3810 C   0  0  0  0  0  0
   27.9900   45.8790   -4.6420 C   0  0  0  0  0  0
   29.4970   47.0300   -6.1970 C   0  0  0  0  0  0
   26.2060   47.5830   -8.8250 N   0  0  0  0  0  0
   25.4630   47.3910  -10.9570 O   0  0  0  0  0  0
   28.2950   46.7240   -9.9920 C   0  0  0  0  0  0
   29.2310   47.0310  -10.9030 N   0  0  0  0  0  0
   28.0310   45.5580   -9.6840 O   0  0  0  0  0  0
   29.3680   48.0050  -11.1350 H   0  0  0  0  0  0
   32.4030   46.9630  -14.5660 C   0  0  0  0  0  0
   30.1450   47.7280  -15.0450 C   0  0  0  0  0  0
   31.4910   47.6000  -15.4250 C   0  0  0  0  0  0
   29.7180   47.2320  -13.7970 C   0  0  0  0  0  0
   30.1300   46.0840  -11.5620 C   0  0  2  0  0  0
   31.2800   45.6930  -10.6080 C   0  0  0  0  0  0
   32.3890   44.9210  -11.3270 C   0  0  0  0  0  0
   33.0140   45.7820  -12.4260 C   0  0  0  0  0  0
   31.9820   46.4570  -13.3180 C   0  0  0  0  0  0
   30.6270   46.6090  -12.9140 C   0  0  0  0  0  0
   23.8380   46.7700   -9.3190 C   0  0  1  0  0  0
   21.9370   48.2830   -9.9100 C   0  0  0  0  0  0
   22.8590   47.3680  -10.2360 N   0  0  0  0  0  0
   21.7460   48.6630   -8.7510 O   0  0  0  0  0  0
   22.9940   47.1630  -11.2160 H   0  0  0  0  0  0
   21.8340   50.1090  -11.6340 C   0  0  0  0  0  0
   21.1080   48.8790  -11.0650 C   0  0  2  0  0  0
   18.8900   48.0800  -10.3890 C   0  0  0  0  0  0
   19.7250   49.2410  -10.6850 N   0  0  0  0  0  0
   19.2730   49.7680  -11.4270 H   0  0  0  0  0  0
   23.7180   45.1960   -9.3230 C   0  0  0  0  0  0
   24.6420   44.5570   -8.2580 C   0  0  0  0  0  0
   22.2750   44.7760   -8.9660 C   0  0  0  0  0  0
   24.0870   44.5650  -10.6860 C   0  0  0  0  0  0
   21.9560   42.6860   -4.3350 C   0  0  0  0  0  0
   22.0710   41.7420   -5.4200 O   0  0  0  0  0  0
   21.6670   40.4510   -5.2610 C   0  0  0  0  0  0
   19.2910   41.3950   -5.0060 C   0  0  0  0  0  0
   18.4770   41.4450   -3.6870 C   0  0  0  0  0  0
   19.2040   40.8390   -2.4610 C   0  0  0  0  0  0
   19.8660   39.4630   -2.7590 C   0  0  2  0  0  0
   19.8320   39.1240   -4.2640 C   0  0  0  0  0  0
   20.3010   40.3250   -4.9590 N   0  0  0  0  0  0
   22.4700   39.5130   -5.2920 O   0  0  0  0  0  0
   20.0430   37.4570   -1.1760 C   0  0  0  0  0  0
   19.1030   36.6180   -0.6510 C   0  0  0  0  0  0
   17.8390   37.0880   -1.1280 C   0  0  0  0  0  0
   19.3450   38.3690   -1.9520 N   0  0  0  0  0  0
   18.0100   38.1240   -1.9410 N   0  0  0  0  0  0
   16.4860   36.6020   -0.8570 C   0  0  0  0  0  0
   16.0080   36.5470    0.4670 C   0  0  0  0  0  0
   14.7310   36.0250    0.7430 C   0  0  0  0  0  0
   13.9150   35.5470   -0.3000 C   0  0  0  0  0  0
   14.3780   35.6350   -1.6330 C   0  0  0  0  0  0
   15.6580   36.1570   -1.9070 C   0  0  0  0  0  0
   12.6770   35.0530    0.0350 O   0  0  0  0  0  0
   12.1020   34.0550   -0.7120 C   0  0  0  0  0  0
   12.7560   32.8220   -0.9290 C   0  0  0  0  0  0
   12.1160   31.8070   -1.6660 C   0  0  0  0  0  0
   10.8230   32.0160   -2.1810 C   0  0  0  0  0  0
   10.1680   33.2410   -1.9650 C   0  0  0  0  0  0
   10.8080   34.2570   -1.2330 C   0  0  0  0  0  0
   10.1690   35.4330   -1.0190 F   0  0  0  0  0  0
   10.2110   31.0360   -2.8890 F   0  0  0  0  0  0
   19.3520   35.4690    0.2820 C   0  0  0  0  0  0
   18.4930   34.4580    0.2520 N   0  0  0  0  0  0
   20.3520   35.4360    1.0020 O   0  0  0  0  0  0
   17.6820   34.4810   -0.3520 H   0  0  0  0  0  0
   18.6300   33.6540    0.8480 H   0  0  0  0  0  0
   21.4340   37.5130   -1.0660 N   0  0  0  0  0  0
   21.9510   36.8550   -0.4920 H   0  0  0  0  0  0
   22.0310   38.1970   -1.5190 H   0  0  0  0  0  0
  1  3  1  0  0  0
  1  6  2  0  0  0
  2  5  1  0  0  0
  2  4  2  0  0  0
  3  5  2  0  0  0
  3  7  1  0  0  0
  4  6  1  0  0  0
  4 49  1  0  0  0
  7  8  1  0  0  0
  8 17  1  0  0  0
  9 19  1  0  0  0
  9 20  2  0  0  0
  9 35  1  0  0  0
 10 16  1  0  0  0
 10 12  2  0  0  0
 10 15  1  0  0  0
 11 21  1  0  0  0
 11 19  1  0  0  0
 11 14  1  0  0  0
 12 18  1  0  0  0
 12 14  1  0  0  0
 13 17  1  0  0  0
 13 18  2  0  0  0
 15 19  1  0  0  0
 16 17  2  0  0  0
 21 23  2  0  0  0
 21 22  1  0  0  0
 22 24  1  0  0  0
 22 29  1  0  0  0
 25 33  1  0  0  0
 25 27  2  0  0  0
 26 28  2  0  0  0
 26 27  1  0  0  0
 28 34  1  0  0  0
 29 30  1  0  0  0
 29 34  1  0  0  0
 30 31  1  0  0  0
 31 32  1  0  0  0
 32 33  1  0  0  0
 33 34  2  0  0  0
 35 37  1  0  0  0
 35 45  1  0  0  0
 36 38  2  0  0  0
 36 37  1  0  0  0
 36 41  1  0  0  0
 37 39  1  0  0  0
 40 41  1  0  0  0
 41 43  1  0  0  0
 42 43  1  0  0  0
 43 44  1  0  0  0
 45 47  1  0  0  0
 45 46  1  0  0  0
 45 48  1  0  0  0
 49 50  1  0  0  0
 50 51  1  0  0  0
 51 57  1  0  0  0
 51 58  2  0  0  0
 52 57  1  0  0  0
 52 53  1  0  0  0
 53 54  1  0  0  0
 54 55  1  0  0  0
 55 56  1  0  0  0
 55 62  1  0  0  0
 56 57  1  0  0  0
 59 84  1  0  0  0
 59 60  2  0  0  0
 59 62  1  0  0  0
 60 79  1  0  0  0
 60 61  1  0  0  0
 61 64  1  0  0  0
 61 63  2  0  0  0
 62 63  1  0  0  0
 64 65  1  0  0  0
 64 69  2  0  0  0
 65 66  2  0  0  0
 66 67  1  0  0  0
 67 70  1  0  0  0
 67 68  2  0  0  0
 68 69  1  0  0  0
 70 71  1  0  0  0
 71 72  1  0  0  0
 71 76  2  0  0  0
 72 73  2  0  0  0
 73 74  1  0  0  0
 74 75  2  0  0  0
 74 78  1  0  0  0
 75 76  1  0  0  0
 76 77  1  0  0  0
 79 81  2  0  0  0
 79 80  1  0  0  0
 80 83  1  0  0  0
 80 82  1  0  0  0
 84 85  1  0  0  0
 84 86  1  0  0  0
M  END
> <TORSDO>
F 19

> <SCORE>
-13.769

> <name>
0

> <ligand_id>
0

> <original_smiles>
[H]c1nc(C([H])([H])Oc2c([H])c([H])c3c(c2[H])C([H])([H])N(C(=O)C([H])(N([H])C(=O)C([H])(N([H])C([H])([H])[H])C([H])([H])[H])C(C([H])([H])[H])(C([H])([H])[H])C([H])([H])[H])C([H])(C(=O)N([H])C2([H])c4c([H])c([H])c([H])c([H])c4C([H])([H])C([H])([H])C2([H])[H])C3([H])[H])c([H])nc1C([H])([H])OC(=O)N1C([H])([H])C([H])([H])C([H])([H])C([H])(n2nc(-c3c([H])c([H])c(Oc4c([H])c([H])c(F)c([H])c4F)c([H])c3[H])c(C(=O)N([H])[H])c2N([H])[H])C1([H])[H]

> <smiles>
[H]c1nc(C([H])([H])Oc2c([H])c([H])c3c(c2[H])C([H])([H])N(C(=O)C([H])(N([H])C(=O)C([H])(N([H])C([H])([H])[H])C([H])([H])[H])C(C([H])([H])[H])(C([H])([H])[H])C([H])([H])[H])C([H])(C(=O)N([H])C2([H])c4c([H])c([H])c([H])c([H])c4C([H])([H])C([H])([H])C2([H])[H])C3([H])[H])c([H])nc1C([H])([H])OC(=O)N1C([H])([H])C([H])([H])C([H])([H])C([H])(n2nc(-c3c([H])c([H])c(Oc4c([H])c([H])c(F)c([H])c4F)c([H])c3[H])c(C(=O)N([H])[H])c2N([H])[H])C1([H])[H]

> <chiral flag>
1

> <version>
0

$$$$
