ligand
                    3D
 Structure written by MMmdl.
132138  0  0  1  0            999 V2000
   -4.4597   10.6000   -7.4680 N   0  0  0  0  0  0
   -4.5102   10.9454   -8.8929 C   0  0  0  0  0  0
    1.5760    7.3685  -10.6735 O   0  0  0  0  0  0
   -5.3765    9.4751   -7.1768 C   0  0  2  0  0  0
   -0.1095    6.3533   -7.0646 C   0  0  0  0  0  0
   -0.7510    7.0157   -8.0622 C   0  0  0  0  0  0
    1.0880    7.0591   -9.5891 C   0  0  0  0  0  0
    1.8187    6.3424   -8.5460 C   0  0  0  0  0  0
    1.3066    5.9861   -7.3301 C   0  0  0  0  0  0
    2.1947    5.2511   -6.3127 C   0  0  0  0  0  0
   -2.1548    6.2566   -3.0765 C   0  0  0  0  0  0
   -2.9973    6.2843   -1.9582 C   0  0  0  0  0  0
   -2.6922    5.4763   -0.7414 C   0  0  0  0  0  0
   -2.3054    4.1339   -0.8651 C   0  0  0  0  0  0
   -6.8685    9.7376   -7.4813 C   0  0  0  0  0  0
   -2.0292    3.3412    0.2589 C   0  0  0  0  0  0
   -1.5971    1.9053    0.0822 C   0  0  0  0  0  0
   -0.0933    0.1213    0.9931 C   0  0  0  0  0  0
    1.1977    0.1704    0.1530 C   0  0  0  0  0  0
    2.6619    1.5759   -1.3280 C   0  0  1  0  0  0
    2.3747    2.6736   -2.4241 C   0  0  0  0  0  0
    1.2133    2.1962   -3.3358 C   0  0  0  0  0  0
    3.6152    2.9004   -3.3267 C   0  0  0  0  0  0
    1.9502    4.0357   -1.8096 C   0  0  0  0  0  0
    3.8551    1.9112   -0.3874 C   0  0  0  0  0  0
   -5.2441    9.0545   -5.6880 C   0  0  0  0  0  0
    6.3304    1.6147    0.1385 C   0  0  2  0  0  0
    6.6383    3.1168    0.3061 C   0  0  0  0  0  0
    7.4221    4.8652    1.8971 C   0  0  1  0  0  0
    7.5711    4.9858    3.4228 C   0  0  0  0  0  0
    8.6680    5.4040    1.1812 C   0  0  0  0  0  0
    8.6962    6.7356    0.7578 C   0  0  0  0  0  0
    9.8126    7.2363    0.0938 C   0  0  0  0  0  0
   10.9111    6.4090   -0.1547 C   0  0  0  0  0  0
   12.1145    6.9378   -0.8574 C   0  0  0  0  0  0
   13.4836    6.7815   -0.5942 C   0  0  0  0  0  0
   -3.0726   10.2855   -7.0610 C   0  0  1  0  0  0
   14.1488    6.0362    0.5439 C   0  0  0  0  0  0
   13.6573    8.0044   -2.3903 C   0  0  0  0  0  0
   10.8833    5.0770    0.2647 C   0  0  0  0  0  0
    9.7670    4.5755    0.9272 C   0  0  0  0  0  0
    7.4305    0.8976   -0.6533 C   0  0  0  0  0  0
    6.6933   -0.3350   -1.1511 C   0  0  2  0  0  0
    5.3099    0.2104   -1.5181 C   0  0  0  0  0  0
   -2.1539    3.9139    1.5324 C   0  0  0  0  0  0
   -2.5260    5.2474    1.6730 C   0  0  0  0  0  0
   -2.7882    6.0262    0.5480 C   0  0  0  0  0  0
   -2.0433   11.4221   -7.2515 C   0  0  0  0  0  0
   -4.1409    7.0858   -2.0111 C   0  0  0  0  0  0
   -4.4241    7.8584   -3.1322 C   0  0  0  0  0  0
   -3.0534    9.8430   -5.5740 C   0  0  0  0  0  0
   -3.5810    7.8480   -4.2519 C   0  0  0  0  0  0
   -2.4397    7.0137   -4.2267 C   0  0  0  0  0  0
   -0.8189    6.0011   -5.8416 C   0  0  0  0  0  0
    3.4880    5.3339   -6.6339 F   0  0  0  0  0  0
    2.0545    5.7796   -5.0965 F   0  0  0  0  0  0
    1.8583    3.9625   -6.2810 F   0  0  0  0  0  0
   -3.1255    7.3254    0.7259 F   0  0  0  0  0  0
   -3.8725    8.6435   -5.3618 N   0  0  0  0  0  0
   -1.6009    6.9954   -5.3625 N   0  0  0  0  0  0
   -0.1953    7.3620   -9.2596 N   0  0  0  0  0  0
   -0.7737    1.4206    1.0330 N   0  0  0  0  0  0
    1.4803    1.3092   -0.5055 N   0  0  0  0  0  0
    5.0716    1.3353   -0.5984 N   0  0  0  0  0  0
    7.0490    3.4954    1.5276 N   0  0  0  0  0  0
   14.3027    7.3712   -1.4472 N   0  0  0  0  0  0
   -0.6968    4.8984   -5.3070 O   0  0  0  0  0  0
    6.5200    3.8759   -0.6569 O   0  0  0  0  0  0
    6.6204   -1.3421   -0.1575 O   0  0  0  0  0  0
    3.6473    2.7228    0.5177 O   0  0  0  0  0  0
    1.9266   -0.8204    0.1153 O   0  0  0  0  0  0
   -1.9333    1.2607   -0.9131 O   0  0  0  0  0  0
   11.9351    7.9158   -2.2930 S   0  0  0  0  0  0
   -3.8783   11.8031   -9.1199 H   0  0  0  0  0  0
   -4.1909   10.1109   -9.5196 H   0  0  0  0  0  0
   -5.5142   11.2362   -9.1990 H   0  0  0  0  0  0
   -5.0668    8.6235   -7.7869 H   0  0  0  0  0  0
   -1.7853    7.3294   -8.0272 H   0  0  0  0  0  0
    2.8425    6.0939   -8.7858 H   0  0  0  0  0  0
   -1.2619    5.6509   -3.0301 H   0  0  0  0  0  0
   -2.2214    3.7043   -1.8544 H   0  0  0  0  0  0
   -7.4919    8.9072   -7.1479 H   0  0  0  0  0  0
   -7.2243   10.6378   -6.9785 H   0  0  0  0  0  0
   -7.0567    9.8521   -8.5484 H   0  0  0  0  0  0
    0.1598   -0.1703    2.0126 H   0  0  0  0  0  0
   -0.7572   -0.6485    0.5967 H   0  0  0  0  0  0
    2.8607    0.6503   -1.8656 H   0  0  0  0  0  0
    0.2833    2.0632   -2.7816 H   0  0  0  0  0  0
    1.0010    2.9141   -4.1276 H   0  0  0  0  0  0
    1.4451    1.2445   -3.8161 H   0  0  0  0  0  0
    4.4692    3.2800   -2.7647 H   0  0  0  0  0  0
    3.9272    1.9780   -3.8176 H   0  0  0  0  0  0
    3.4128    3.6280   -4.1123 H   0  0  0  0  0  0
    2.7527    4.4909   -1.2289 H   0  0  0  0  0  0
    1.6795    4.7556   -2.5834 H   0  0  0  0  0  0
    1.0844    3.9359   -1.1536 H   0  0  0  0  0  0
   -5.9077    8.2081   -5.5031 H   0  0  0  0  0  0
   -5.5726    9.8605   -5.0281 H   0  0  0  0  0  0
    6.2781    1.1598    1.1290 H   0  0  0  0  0  0
    6.5752    5.4964    1.6151 H   0  0  0  0  0  0
    7.7854    6.0134    3.7186 H   0  0  0  0  0  0
    6.6561    4.6856    3.9351 H   0  0  0  0  0  0
    8.3814    4.3579    3.7965 H   0  0  0  0  0  0
    7.8532    7.3858    0.9413 H   0  0  0  0  0  0
    9.8207    8.2693   -0.2225 H   0  0  0  0  0  0
   -2.7313    9.4404   -7.6622 H   0  0  0  0  0  0
   13.4411    5.7565    1.3240 H   0  0  0  0  0  0
   14.6230    5.1170    0.1989 H   0  0  0  0  0  0
   14.9210    6.6342    1.0299 H   0  0  0  0  0  0
   14.1476    8.5504   -3.1825 H   0  0  0  0  0  0
   11.7227    4.4242    0.0737 H   0  0  0  0  0  0
    9.7599    3.5426    1.2432 H   0  0  0  0  0  0
    8.2971    0.6747   -0.0290 H   0  0  0  0  0  0
    7.7539    1.5173   -1.4924 H   0  0  0  0  0  0
    7.1862   -0.7476   -2.0321 H   0  0  0  0  0  0
    4.5518   -0.5705   -1.4430 H   0  0  0  0  0  0
    5.3067    0.5811   -2.5433 H   0  0  0  0  0  0
   -1.9602    3.3367    2.4252 H   0  0  0  0  0  0
   -2.6076    5.6802    2.6592 H   0  0  0  0  0  0
   -1.0727   11.1500   -6.8348 H   0  0  0  0  0  0
   -1.8710   11.6477   -8.3032 H   0  0  0  0  0  0
   -2.3677   12.3399   -6.7592 H   0  0  0  0  0  0
   -4.8211    7.1203   -1.1724 H   0  0  0  0  0  0
   -5.3095    8.4769   -3.1120 H   0  0  0  0  0  0
   -3.3895   10.6533   -4.9232 H   0  0  0  0  0  0
   -2.0236    9.6332   -5.2823 H   0  0  0  0  0  0
   -1.7111    7.7980   -5.9647 H   0  0  0  0  0  0
   -0.7336    7.8538   -9.9581 H   0  0  0  0  0  0
   -0.5835    1.9951    1.8408 H   0  0  0  0  0  0
    0.8345    2.0814   -0.4287 H   0  0  0  0  0  0
    7.1083    2.8007    2.2581 H   0  0  0  0  0  0
    6.0932   -2.0692   -0.4965 H   0  0  0  0  0  0
  1  2  1  0  0  0
  1  4  1  0  0  0
  1 37  1  0  0  0
  2 74  1  0  0  0
  2 75  1  0  0  0
  2 76  1  0  0  0
  3  7  2  0  0  0
  4 15  1  0  0  0
  4 26  1  0  0  0
  4 77  1  0  0  0
  5  6  2  0  0  0
  5  9  1  0  0  0
  5 54  1  0  0  0
  6 61  1  0  0  0
  6 78  1  0  0  0
  7  8  1  0  0  0
  7 61  1  0  0  0
  8  9  2  0  0  0
  8 79  1  0  0  0
  9 10  1  0  0  0
 10 55  1  0  0  0
 10 56  1  0  0  0
 10 57  1  0  0  0
 11 12  1  0  0  0
 11 53  2  0  0  0
 11 80  1  0  0  0
 12 13  1  0  0  0
 12 49  2  0  0  0
 13 14  1  0  0  0
 13 47  2  0  0  0
 14 16  2  0  0  0
 14 81  1  0  0  0
 15 82  1  0  0  0
 15 83  1  0  0  0
 15 84  1  0  0  0
 16 17  1  0  0  0
 16 45  1  0  0  0
 17 62  1  0  0  0
 17 72  2  0  0  0
 18 19  1  0  0  0
 18 62  1  0  0  0
 18 85  1  0  0  0
 18 86  1  0  0  0
 19 63  1  0  0  0
 19 71  2  0  0  0
 20 21  1  0  0  0
 20 25  1  0  0  0
 20 63  1  0  0  0
 20 87  1  0  0  0
 21 22  1  0  0  0
 21 23  1  0  0  0
 21 24  1  0  0  0
 22 88  1  0  0  0
 22 89  1  0  0  0
 22 90  1  0  0  0
 23 91  1  0  0  0
 23 92  1  0  0  0
 23 93  1  0  0  0
 24 94  1  0  0  0
 24 95  1  0  0  0
 24 96  1  0  0  0
 25 64  1  0  0  0
 25 70  2  0  0  0
 26 59  1  0  0  0
 26 97  1  0  0  0
 26 98  1  0  0  0
 27 28  1  0  0  0
 27 42  1  0  0  0
 27 64  1  0  0  0
 27 99  1  0  0  0
 28 65  1  0  0  0
 28 68  2  0  0  0
 29 30  1  0  0  0
 29 31  1  0  0  0
 29 65  1  0  0  0
 29100  1  0  0  0
 30101  1  0  0  0
 30102  1  0  0  0
 30103  1  0  0  0
 31 32  1  0  0  0
 31 41  2  0  0  0
 32 33  2  0  0  0
 32104  1  0  0  0
 33 34  1  0  0  0
 33105  1  0  0  0
 34 35  1  0  0  0
 34 40  2  0  0  0
 35 36  2  0  0  0
 35 73  1  0  0  0
 36 38  1  0  0  0
 36 66  1  0  0  0
 37 48  1  0  0  0
 37 51  1  0  0  0
 37106  1  0  0  0
 38107  1  0  0  0
 38108  1  0  0  0
 38109  1  0  0  0
 39 66  2  0  0  0
 39 73  1  0  0  0
 39110  1  0  0  0
 40 41  1  0  0  0
 40111  1  0  0  0
 41112  1  0  0  0
 42 43  1  0  0  0
 42113  1  0  0  0
 42114  1  0  0  0
 43 44  1  0  0  0
 43 69  1  0  0  0
 43115  1  0  0  0
 44 64  1  0  0  0
 44116  1  0  0  0
 44117  1  0  0  0
 45 46  2  0  0  0
 45118  1  0  0  0
 46 47  1  0  0  0
 46119  1  0  0  0
 47 58  1  0  0  0
 48120  1  0  0  0
 48121  1  0  0  0
 48122  1  0  0  0
 49 50  1  0  0  0
 49123  1  0  0  0
 50 52  2  0  0  0
 50124  1  0  0  0
 51 59  1  0  0  0
 51125  1  0  0  0
 51126  1  0  0  0
 52 53  1  0  0  0
 52 59  1  0  0  0
 53 60  1  0  0  0
 54 60  1  0  0  0
 54 67  2  0  0  0
 60127  1  0  0  0
 61128  1  0  0  0
 62129  1  0  0  0
 63130  1  0  0  0
 65131  1  0  0  0
 69132  1  0  0  0
M  END
> <s_m_entry_id>
13

> <s_m_entry_name>
7jtp.1_mol3

> <s_m_source_file>
ligprep_1.maegz

> <i_m_source_file_index>
1

> <i_lp_mmshare_version>
38013

> <i_f3d_flags>
0

> <s_lp_Force_Field>
OPLS3

> <r_lp_Energy>
103.021465741583

> <b_lp_Chiralities_Consistent>
1

> <s_lp_Variant>
ligand-1

> <s_m_job_name>
ligprep_1

> <s_m_subgroup_title>
ligprep_1-out1

> <s_m_subgroupid>
ligprep_1-out1

> <b_m_subgroup_collapsed>
0

$$$$
