ligand
                    3D
 Structure written by MMmdl.
132138  0  0  1  0            999 V2000
    5.5349   -4.9406  -11.0962 N   0  0  0  0  0  0
    6.2390   -6.1954  -10.8042 C   0  0  0  0  0  0
    2.7116   -5.2668  -18.7379 O   0  0  0  0  0  0
    5.7457   -3.9551  -10.0172 C   0  0  2  0  0  0
    2.8368   -2.0781  -16.1448 C   0  0  0  0  0  0
    3.5673   -3.1935  -16.0162 C   0  0  0  0  0  0
    2.7397   -4.3091  -17.9727 C   0  0  0  0  0  0
    1.9164   -3.0805  -18.1492 C   0  0  0  0  0  0
    1.9331   -2.0010  -17.3080 C   0  0  0  0  0  0
    1.0335   -0.7719  -17.5984 C   0  0  0  0  0  0
    3.8534    1.1327  -13.2680 C   0  0  0  0  0  0
    4.0773    2.0590  -12.2414 C   0  0  0  0  0  0
    3.6923    3.5233  -12.4393 C   0  0  0  0  0  0
    3.5339    4.0358  -13.7427 C   0  0  0  0  0  0
    5.3650   -4.4241   -8.5945 C   0  0  0  0  0  0
    3.1711    5.3685  -13.9590 C   0  0  0  0  0  0
    2.9989    5.8759  -15.3825 C   0  0  0  0  0  0
    2.5076    7.8183  -16.8133 C   0  0  0  0  0  0
    3.8235    8.1690  -17.5207 C   0  0  0  0  0  0
    5.0278    9.9833  -18.8089 C   0  0  1  0  0  0
    4.6945   11.4397  -19.3197 C   0  0  0  0  0  0
    4.4985   12.4387  -18.1491 C   0  0  0  0  0  0
    5.8055   11.9897  -20.2472 C   0  0  0  0  0  0
    3.3849   11.4245  -20.1534 C   0  0  0  0  0  0
    6.3524    9.8814  -17.9886 C   0  0  0  0  0  0
    4.9702   -2.6470  -10.3274 C   0  0  0  0  0  0
    8.8441    9.3012  -17.9754 C   0  0  2  0  0  0
    9.3144   10.4876  -17.0996 C   0  0  0  0  0  0
   10.5568   11.0015  -15.0085 C   0  0  1  0  0  0
   10.5283   12.5415  -15.1607 C   0  0  0  0  0  0
    9.8428   10.5122  -13.7347 C   0  0  0  0  0  0
   10.4306   10.7238  -12.4870 C   0  0  0  0  0  0
    9.8227   10.2335  -11.3355 C   0  0  0  0  0  0
    8.6123    9.5258  -11.4184 C   0  0  0  0  0  0
    7.9776    8.9452  -10.1661 C   0  0  0  0  0  0
    6.7135    8.3210   -9.9591 C   0  0  0  0  0  0
    6.0120   -4.3345  -12.3515 C   0  0  1  0  0  0
    5.5828    8.0811  -10.9330 C   0  0  0  0  0  0
    7.5373    8.1694   -7.9407 C   0  0  0  0  0  0
    8.0134    9.3369  -12.6700 C   0  0  0  0  0  0
    8.6251    9.8261  -13.8195 C   0  0  0  0  0  0
    9.8097    8.9967  -19.1256 C   0  0  0  0  0  0
    8.9155    8.2604  -20.1095 C   0  0  2  0  0  0
    7.5878    9.0066  -19.9977 C   0  0  0  0  0  0
    2.9615    6.2150  -12.8610 C   0  0  0  0  0  0
    3.1079    5.7283  -11.5683 C   0  0  0  0  0  0
    3.4676    4.4002  -11.3449 C   0  0  0  0  0  0
    6.0951   -5.2460  -13.5972 C   0  0  0  0  0  0
    4.6582    1.6043  -11.0477 C   0  0  0  0  0  0
    5.0073    0.2677  -10.8820 C   0  0  0  0  0  0
    5.1253   -3.1037  -12.6713 C   0  0  0  0  0  0
    4.7896   -0.6801  -11.8941 C   0  0  0  0  0  0
    4.1798   -0.2326  -13.1142 C   0  0  0  0  0  0
    2.9336   -0.9765  -15.1467 C   0  0  0  0  0  0
    0.1090   -0.6316  -16.6456 F   0  0  0  0  0  0
    1.7633    0.3378  -17.7248 F   0  0  0  0  0  0
    0.3815   -0.9133  -18.7521 F   0  0  0  0  0  0
    3.5739    3.9594  -10.0730 F   0  0  0  0  0  0
    5.1770   -2.0329  -11.6607 N   0  0  0  0  0  0
    3.8866   -1.1794  -14.1702 N   0  0  0  0  0  0
    3.5506   -4.2660  -16.8530 N   0  0  0  0  0  0
    2.7259    7.1901  -15.5052 N   0  0  0  0  0  0
    3.8924    9.3914  -18.0790 N   0  0  0  0  0  0
    7.5060    9.4805  -18.6037 N   0  0  0  0  0  0
   10.2724   10.1728  -16.2027 N   0  0  0  0  0  0
    6.5311    7.9030   -8.7148 N   0  0  0  0  0  0
    2.2113    0.0125  -15.1920 O   0  0  0  0  0  0
    8.8090   11.6008  -17.2507 O   0  0  0  0  0  0
    8.7335    6.8853  -19.8242 O   0  0  0  0  0  0
    6.2834   10.1670  -16.7862 O   0  0  0  0  0  0
    4.7451    7.3565  -17.5677 O   0  0  0  0  0  0
    3.1027    5.1114  -16.3436 O   0  0  0  0  0  0
    8.8645    8.9684   -8.6477 S   0  0  0  0  0  0
    6.0687   -6.9354  -11.5849 H   0  0  0  0  0  0
    5.8710   -6.6551   -9.8885 H   0  0  0  0  0  0
    7.3142   -6.0443  -10.7050 H   0  0  0  0  0  0
    6.8096   -3.7091   -9.9870 H   0  0  0  0  0  0
    4.2593   -3.3683  -15.2114 H   0  0  0  0  0  0
    1.2649   -3.0572  -19.0128 H   0  0  0  0  0  0
    3.4217    1.4789  -14.1791 H   0  0  0  0  0  0
    3.6989    3.3955  -14.5943 H   0  0  0  0  0  0
    6.0037   -5.2359   -8.2480 H   0  0  0  0  0  0
    4.3314   -4.7689   -8.5482 H   0  0  0  0  0  0
    5.4753   -3.6183   -7.8656 H   0  0  0  0  0  0
    1.9341    8.7297  -16.6607 H   0  0  0  0  0  0
    1.9188    7.1718  -17.4663 H   0  0  0  0  0  0
    5.1011    9.3558  -19.6922 H   0  0  0  0  0  0
    4.1933   13.4227  -18.5094 H   0  0  0  0  0  0
    5.4182   12.5854  -17.5826 H   0  0  0  0  0  0
    3.7331   12.0998  -17.4534 H   0  0  0  0  0  0
    5.5347   12.9683  -20.6451 H   0  0  0  0  0  0
    5.9717   11.3421  -21.1066 H   0  0  0  0  0  0
    6.7578   12.1120  -19.7291 H   0  0  0  0  0  0
    3.1719   12.3997  -20.5943 H   0  0  0  0  0  0
    2.5126   11.1596  -19.5546 H   0  0  0  0  0  0
    3.4453   10.7130  -20.9775 H   0  0  0  0  0  0
    5.2283   -1.9549   -9.5293 H   0  0  0  0  0  0
    3.9010   -2.8310  -10.2182 H   0  0  0  0  0  0
    8.8099    8.4139  -17.3404 H   0  0  0  0  0  0
   11.6076   10.7602  -14.8374 H   0  0  0  0  0  0
   11.0642   12.8578  -16.0574 H   0  0  0  0  0  0
   11.0068   13.0281  -14.3110 H   0  0  0  0  0  0
    9.5099   12.9263  -15.2209 H   0  0  0  0  0  0
   11.3713   11.2499  -12.4138 H   0  0  0  0  0  0
   10.2962   10.3897  -10.3776 H   0  0  0  0  0  0
    7.0350   -3.9823  -12.1867 H   0  0  0  0  0  0
    5.3511    8.9670  -11.5246 H   0  0  0  0  0  0
    4.6566    7.8323  -10.4150 H   0  0  0  0  0  0
    5.7977    7.2533  -11.6123 H   0  0  0  0  0  0
    7.5467    7.9161   -6.8911 H   0  0  0  0  0  0
    7.0946    8.7925  -12.7568 H   0  0  0  0  0  0
    8.1644    9.6571  -14.7806 H   0  0  0  0  0  0
   10.6664    8.4132  -18.7827 H   0  0  0  0  0  0
   10.1736    9.9280  -19.5585 H   0  0  0  0  0  0
    9.3242    8.3379  -21.1155 H   0  0  0  0  0  0
    6.7714    8.3450  -20.2835 H   0  0  0  0  0  0
    7.5794    9.8662  -20.6654 H   0  0  0  0  0  0
    2.6771    7.2469  -13.0084 H   0  0  0  0  0  0
    2.9341    6.3826  -10.7272 H   0  0  0  0  0  0
    6.8069   -6.0605  -13.4575 H   0  0  0  0  0  0
    6.4379   -4.6885  -14.4704 H   0  0  0  0  0  0
    5.1338   -5.6852  -13.8482 H   0  0  0  0  0  0
    4.8615    2.2880  -10.2459 H   0  0  0  0  0  0
    5.4678   -0.0344   -9.9544 H   0  0  0  0  0  0
    4.0950   -3.4078  -12.8648 H   0  0  0  0  0  0
    5.5790   -2.7076  -13.5774 H   0  0  0  0  0  0
    4.3408   -2.0729  -14.1158 H   0  0  0  0  0  0
    4.1318   -5.0728  -16.6815 H   0  0  0  0  0  0
    2.6502    7.7685  -14.6865 H   0  0  0  0  0  0
    3.0840    9.9916  -18.0302 H   0  0  0  0  0  0
   10.7514    9.2833  -16.2699 H   0  0  0  0  0  0
    9.4632    6.5697  -19.2558 H   0  0  0  0  0  0
  1  2  1  0  0  0
  1  4  1  0  0  0
  1 37  1  0  0  0
  2 74  1  0  0  0
  2 75  1  0  0  0
  2 76  1  0  0  0
  3  7  2  0  0  0
  4 15  1  0  0  0
  4 26  1  0  0  0
  4 77  1  0  0  0
  5  6  2  0  0  0
  5  9  1  0  0  0
  5 54  1  0  0  0
  6 61  1  0  0  0
  6 78  1  0  0  0
  7  8  1  0  0  0
  7 61  1  0  0  0
  8  9  2  0  0  0
  8 79  1  0  0  0
  9 10  1  0  0  0
 10 55  1  0  0  0
 10 56  1  0  0  0
 10 57  1  0  0  0
 11 12  1  0  0  0
 11 53  2  0  0  0
 11 80  1  0  0  0
 12 13  1  0  0  0
 12 49  2  0  0  0
 13 14  1  0  0  0
 13 47  2  0  0  0
 14 16  2  0  0  0
 14 81  1  0  0  0
 15 82  1  0  0  0
 15 83  1  0  0  0
 15 84  1  0  0  0
 16 17  1  0  0  0
 16 45  1  0  0  0
 17 62  1  0  0  0
 17 72  2  0  0  0
 18 19  1  0  0  0
 18 62  1  0  0  0
 18 85  1  0  0  0
 18 86  1  0  0  0
 19 63  1  0  0  0
 19 71  2  0  0  0
 20 21  1  0  0  0
 20 25  1  0  0  0
 20 63  1  0  0  0
 20 87  1  0  0  0
 21 22  1  0  0  0
 21 23  1  0  0  0
 21 24  1  0  0  0
 22 88  1  0  0  0
 22 89  1  0  0  0
 22 90  1  0  0  0
 23 91  1  0  0  0
 23 92  1  0  0  0
 23 93  1  0  0  0
 24 94  1  0  0  0
 24 95  1  0  0  0
 24 96  1  0  0  0
 25 64  1  0  0  0
 25 70  2  0  0  0
 26 59  1  0  0  0
 26 97  1  0  0  0
 26 98  1  0  0  0
 27 28  1  0  0  0
 27 42  1  0  0  0
 27 64  1  0  0  0
 27 99  1  0  0  0
 28 65  1  0  0  0
 28 68  2  0  0  0
 29 30  1  0  0  0
 29 31  1  0  0  0
 29 65  1  0  0  0
 29100  1  0  0  0
 30101  1  0  0  0
 30102  1  0  0  0
 30103  1  0  0  0
 31 32  1  0  0  0
 31 41  2  0  0  0
 32 33  2  0  0  0
 32104  1  0  0  0
 33 34  1  0  0  0
 33105  1  0  0  0
 34 35  1  0  0  0
 34 40  2  0  0  0
 35 36  2  0  0  0
 35 73  1  0  0  0
 36 38  1  0  0  0
 36 66  1  0  0  0
 37 48  1  0  0  0
 37 51  1  0  0  0
 37106  1  0  0  0
 38107  1  0  0  0
 38108  1  0  0  0
 38109  1  0  0  0
 39 66  2  0  0  0
 39 73  1  0  0  0
 39110  1  0  0  0
 40 41  1  0  0  0
 40111  1  0  0  0
 41112  1  0  0  0
 42 43  1  0  0  0
 42113  1  0  0  0
 42114  1  0  0  0
 43 44  1  0  0  0
 43 69  1  0  0  0
 43115  1  0  0  0
 44 64  1  0  0  0
 44116  1  0  0  0
 44117  1  0  0  0
 45 46  2  0  0  0
 45118  1  0  0  0
 46 47  1  0  0  0
 46119  1  0  0  0
 47 58  1  0  0  0
 48120  1  0  0  0
 48121  1  0  0  0
 48122  1  0  0  0
 49 50  1  0  0  0
 49123  1  0  0  0
 50 52  2  0  0  0
 50124  1  0  0  0
 51 59  1  0  0  0
 51125  1  0  0  0
 51126  1  0  0  0
 52 53  1  0  0  0
 52 59  1  0  0  0
 53 60  1  0  0  0
 54 60  1  0  0  0
 54 67  2  0  0  0
 60127  1  0  0  0
 61128  1  0  0  0
 62129  1  0  0  0
 63130  1  0  0  0
 65131  1  0  0  0
 69132  1  0  0  0
M  END
> <s_m_entry_id>
28

> <s_m_entry_name>
7jtp.1_mol3

> <s_m_source_file>
ligprep_1.maegz

> <i_m_source_file_index>
1

> <i_lp_mmshare_version>
38013

> <i_f3d_flags>
0

> <s_lp_Force_Field>
OPLS3

> <r_lp_Energy>
103.021465741583

> <b_lp_Chiralities_Consistent>
1

> <s_lp_Variant>
ligand-1

> <s_m_job_name>
glide-dock_SP_ligprep_ligand

> <s_i_glide_gridfile>
glide-grid_crystal_ligand

> <i_i_glide_lignum>
1

> <i_i_glide_rotatable_bonds>
21

> <r_i_docking_score>
-10.715627634598

> <r_i_glide_ligand_efficiency>
-0.146789419652028

> <r_i_glide_ligand_efficiency_sa>
-0.6134827742884

> <r_i_glide_ligand_efficiency_ln>
-2.02546258104797

> <r_i_glide_gscore>
-10.715627634598

> <r_i_glide_evdw>
-71.4016189575195

> <r_i_glide_ecoul>
-14.0655860900879

> <r_i_glide_energy>
-85.4672050476074

> <r_i_glide_einternal>
21.3564720153809

> <r_i_glide_emodel>
-131.055005399078

> <r_i_glide_intrahb_reward>
0

> <i_i_glide_confnum>
744

> <i_i_glide_posenum>
139

> <r_i_glide_eff_state_penalty>
0

> <r_i_glide_lipo>
-3.10538371613665

> <r_i_glide_hbond>
-0.568349016776737

> <r_i_glide_metal>
0

> <r_i_glide_rewards>
-1.18117777777966

> <r_i_glide_erotb>
0.155669602047708

> <r_i_glide_esite>
-0.336467864563548

> <s_m_subgroup_title>
glide-dock_SP_ligprep_ligand_pv1

> <s_m_subgroupid>
glide-dock_SP_ligprep_ligand_pv1

> <b_m_subgroup_collapsed>
0

$$$$
