0000
                    3D
 Structure written by MMmdl.
172179  0  0  1  0            999 V2000
   -6.3032   -4.6954    9.8142 C   0  0  0  0  0  0
   -7.2717   -5.4750   10.4521 C   0  0  0  0  0  0
  -14.2069    8.1884   18.2711 C   0  0  0  0  0  0
  -12.0404    9.2248   17.9959 C   0  0  0  0  0  0
   -9.2350   -7.1038   11.9984 C   0  0  0  0  0  0
   -6.3387   -3.3116    9.9155 C   0  0  0  0  0  0
  -14.6663    9.3196   18.9380 C   0  0  0  0  0  0
  -12.5051   10.3602   18.6566 C   0  0  0  0  0  0
  -10.2106   -7.8850   12.6075 C   0  0  0  0  0  0
   -8.3223   -3.4598   11.2889 C   0  0  0  0  0  0
  -10.5157   -5.1122   12.4483 C   0  0  0  0  0  0
  -12.1901    4.7379   16.0264 C   0  0  0  0  0  0
  -12.8864    8.1266   17.8001 C   0  0  0  0  0  0
   -8.3041   -4.8687   11.2030 C   0  0  0  0  0  0
   -9.3726   -5.7124   11.8956 C   0  0  0  0  0  0
  -13.8157   10.4035   19.1395 C   0  0  0  0  0  0
   -7.3435   -2.6923   10.6558 C   0  0  0  0  0  0
  -11.3716   -7.3073   13.1421 C   0  0  0  0  0  0
  -11.5180   -5.8942   13.0826 C   0  0  0  0  0  0
  -12.3840    6.8796   17.0854 C   0  0  0  0  0  0
  -11.0938    6.5497   16.5697 C   0  0  0  0  0  0
  -15.7824   -2.0378   15.4676 C   0  0  0  0  0  0
  -15.0270   -4.5750   14.9474 C   0  0  0  0  0  0
  -14.1952   -3.6108   14.5312 C   0  0  0  0  0  0
  -14.5965   -2.2219   14.8056 C   0  0  0  0  0  0
  -16.6788   -3.1337   15.9287 C   0  0  0  0  0  0
  -12.9239   -3.9428   13.8257 C   0  0  0  0  0  0
  -12.6359   12.0636   21.6088 C   0  0  0  0  0  0
  -11.2212    9.4984   22.6303 C   0  0  0  0  0  0
   -2.5132    2.8744   17.0814 C   0  0  0  0  0  0
   -7.8774    9.1614   23.0820 C   0  0  0  0  0  0
  -11.5397   13.0809   23.6364 C   0  0  0  0  0  0
  -13.7719   -8.0109   13.2861 C   0  0  0  0  0  0
  -12.1103   -9.5683   13.9567 C   0  0  0  0  0  0
   -5.2305   -0.5938   13.9824 C   0  0  0  0  0  0
   -5.2375    1.4871   12.6601 C   0  0  0  0  0  0
  -10.3402   11.1221   24.3821 C   0  0  0  0  0  0
  -14.7781   -8.4776   14.3557 C   0  0  0  0  0  0
  -13.0129  -10.1711   15.0572 C   0  0  0  0  0  0
   -6.3876   -1.1644   13.1397 C   0  0  0  0  0  0
   -6.3724    0.9473   11.7641 C   0  0  0  0  0  0
  -12.2000   11.8239   23.0673 C   0  0  2  0  0  0
  -10.7531   12.5396   24.8014 C   0  0  2  0  0  0
   -9.8067    7.3509   16.5836 C   0  0  0  0  0  0
  -11.8891    6.3687   22.4960 C   0  0  0  0  0  0
   -9.8332    5.9320   23.8364 C   0  0  0  0  0  0
  -11.6780    7.3037   24.8180 C   0  0  0  0  0  0
  -15.4177  -10.4420   15.8285 C   0  0  0  0  0  0
  -14.3192   11.6411   19.8775 C   0  0  0  0  0  0
   -7.3787   -1.1749   10.7714 C   0  0  0  0  0  0
   -1.2282    3.1763   17.8689 C   0  0  0  0  0  0
   -6.6493    9.3293   23.9936 C   0  0  0  0  0  0
   -1.2464    4.5080   18.6584 C   0  0  0  0  0  0
   -5.2882    9.1310   23.2811 C   0  0  0  0  0  0
   -2.3239    4.5896   19.7631 C   0  0  0  0  0  0
   -5.0506    7.6923   22.7751 C   0  0  0  0  0  0
   -2.3758    5.9664   20.4560 C   0  0  0  0  0  0
   -3.7545    7.5373   21.9638 C   0  0  0  0  0  0
   -3.5775    6.1105   21.4102 C   0  0  0  0  0  0
   -4.0164    1.3813   14.7144 C   0  0  0  0  0  0
   -4.0655    1.1598   16.2443 C   0  0  0  0  0  0
  -10.2258    8.3264   22.9407 C   0  0  2  0  0  0
  -13.7363   -1.0027   14.3820 C   0  0  0  0  0  0
  -10.9031    7.0126   23.5131 C   0  0  0  0  0  0
  -11.0475    5.3535   15.9978 N   0  0  0  0  0  0
  -16.2079   -4.3907   15.6075 N   0  0  0  0  0  0
  -12.3618   -8.1283   13.7365 N   0  0  0  0  0  0
  -11.2039   10.7257   23.2501 N   0  0  0  0  0  0
   -5.1984    0.8769   13.9977 N   0  0  0  0  0  0
  -12.6865   -5.2924   13.7063 N   0  0  0  0  0  0
  -13.8819   11.6816   21.2760 N   0  0  0  0  0  0
   -2.8458    1.5764   16.9485 N   0  0  0  0  0  0
   -8.9912    8.6821   23.6558 N   0  0  0  0  0  0
  -14.4962   -9.9546   14.6866 N   0  3  0  0  0  0
   -6.2916   -0.5958   11.7064 N   0  3  0  0  0  0
  -17.7288   -2.9540   16.5402 O   0  0  0  0  0  0
  -12.1704   -3.0794   13.4025 O   0  0  0  0  0  0
  -11.8241   12.5496   20.8227 O   0  0  0  0  0  0
  -12.0570    9.2268   21.7693 O   0  0  0  0  0  0
   -3.1851    3.7929   16.6053 O   0  0  0  0  0  0
   -7.8180    9.4617   21.8916 O   0  0  0  0  0  0
  -11.4876   12.5496   25.9978 O   0  0  0  0  0  0
  -14.2855    0.1315   14.7983 F   0  0  0  0  0  0
  -12.5221   -1.0457   14.9352 F   0  0  0  0  0  0
  -13.6473   -0.9243   13.0556 F   0  0  0  0  0  0
  -13.4875    5.5457   16.7844 S   0  0  0  0  0  0
   -5.5215   -5.1719    9.2412 H   0  0  0  0  0  0
   -7.2282   -6.5454   10.3533 H   0  0  0  0  0  0
  -14.8742    7.3546   18.1262 H   0  0  0  0  0  0
  -11.0306    9.2050   17.6372 H   0  0  0  0  0  0
   -8.3644   -7.5910   11.5980 H   0  0  0  0  0  0
   -5.5825   -2.7154    9.4230 H   0  0  0  0  0  0
  -15.6817    9.3497   19.3049 H   0  0  0  0  0  0
  -11.8468   11.2001   18.8041 H   0  0  0  0  0  0
  -10.0665   -8.9511   12.6512 H   0  0  0  0  0  0
   -9.0878   -2.9600   11.8585 H   0  0  0  0  0  0
  -10.6150   -4.0639   12.3738 H   0  0  0  0  0  0
  -12.3316    3.7599   15.5942 H   0  0  0  0  0  0
  -16.1069   -1.0287   15.6814 H   0  0  0  0  0  0
  -14.8434   -5.6265   14.8053 H   0  0  0  0  0  0
  -12.2867   13.8267   23.8973 H   0  0  0  0  0  0
  -10.8557   13.5089   22.9015 H   0  0  0  0  0  0
  -14.0580   -7.0222   12.9445 H   0  0  0  0  0  0
  -13.8971   -8.6201   12.3862 H   0  0  0  0  0  0
  -11.0878   -9.7092   14.3096 H   0  0  0  0  0  0
  -12.2078  -10.1282   13.0220 H   0  0  0  0  0  0
   -4.2881   -0.9995   13.6071 H   0  0  0  0  0  0
   -5.3431   -0.9725   14.9994 H   0  0  0  0  0  0
   -4.2874    1.3506   12.1520 H   0  0  0  0  0  0
   -5.3600    2.5675   12.7676 H   0  0  0  0  0  0
  -10.3996   10.4204   25.2189 H   0  0  0  0  0  0
   -9.3038   11.1726   24.0449 H   0  0  0  0  0  0
  -14.6926   -7.9091   15.2818 H   0  0  0  0  0  0
  -15.8070   -8.4219   13.9922 H   0  0  0  0  0  0
  -12.8386   -9.6940   16.0250 H   0  0  0  0  0  0
  -12.8605  -11.2466   15.1637 H   0  0  0  0  0  0
   -7.3630   -0.8988   13.5469 H   0  0  0  0  0  0
   -6.3157   -2.2501   13.0773 H   0  0  0  0  0  0
   -7.3559    1.2189   12.1528 H   0  0  0  0  0  0
   -6.2866    1.3242   10.7428 H   0  0  0  0  0  0
  -13.0897   11.6074   23.6607 H   0  0  0  0  0  0
   -9.8772   13.1677   24.9476 H   0  0  0  0  0  0
   -9.8841    8.2724   16.0051 H   0  0  0  0  0  0
   -8.9648    6.8010   16.1581 H   0  0  0  0  0  0
   -9.5059    7.6115   17.5991 H   0  0  0  0  0  0
  -12.1995    5.3695   22.7995 H   0  0  0  0  0  0
  -11.4438    6.2751   21.5045 H   0  0  0  0  0  0
  -12.8052    6.9511   22.3912 H   0  0  0  0  0  0
  -10.2836    4.9943   24.1670 H   0  0  0  0  0  0
   -9.1582    6.2441   24.6362 H   0  0  0  0  0  0
   -9.2189    5.7068   22.9621 H   0  0  0  0  0  0
  -12.1332    6.3896   25.1979 H   0  0  0  0  0  0
  -12.4940    8.0135   24.6732 H   0  0  0  0  0  0
  -11.0328    7.6976   25.6038 H   0  0  0  0  0  0
  -15.2037  -11.5012   15.9954 H   0  0  0  0  0  0
  -16.4515  -10.3079   15.4961 H   0  0  0  0  0  0
  -15.2071   -9.8487   16.7228 H   0  0  0  0  0  0
  -15.4109   11.6596   19.8607 H   0  0  0  0  0  0
  -14.0028   12.5389   19.3382 H   0  0  0  0  0  0
   -8.3347   -0.8161   11.1622 H   0  0  0  0  0  0
   -7.2069   -0.7099    9.8000 H   0  0  0  0  0  0
   -0.4086    3.1943   17.1499 H   0  0  0  0  0  0
   -1.0095    2.3500   18.5472 H   0  0  0  0  0  0
   -6.6932   10.3353   24.4067 H   0  0  0  0  0  0
   -6.7161    8.6512   24.8442 H   0  0  0  0  0  0
   -1.3793    5.3347   17.9584 H   0  0  0  0  0  0
   -0.2650    4.6618   19.1075 H   0  0  0  0  0  0
   -5.2060    9.8394   22.4515 H   0  0  0  0  0  0
   -4.4848    9.4015   23.9697 H   0  0  0  0  0  0
   -2.1524    3.8112   20.5077 H   0  0  0  0  0  0
   -3.3041    4.3845   19.3302 H   0  0  0  0  0  0
   -5.0343    7.0081   23.6238 H   0  0  0  0  0  0
   -5.8892    7.3812   22.1516 H   0  0  0  0  0  0
   -2.4351    6.7469   19.6950 H   0  0  0  0  0  0
   -1.4488    6.1442   21.0036 H   0  0  0  0  0  0
   -3.7685    8.2449   21.1328 H   0  0  0  0  0  0
   -2.8938    7.8054   22.5782 H   0  0  0  0  0  0
   -3.4818    5.4025   22.2360 H   0  0  0  0  0  0
   -4.4854    5.8279   20.8741 H   0  0  0  0  0  0
   -3.9259    2.4549   14.5423 H   0  0  0  0  0  0
   -3.1098    0.9363   14.3037 H   0  0  0  0  0  0
   -4.2002    0.1041   16.4704 H   0  0  0  0  0  0
   -4.9412    1.6607   16.6661 H   0  0  0  0  0  0
   -9.8843    8.0347   21.9442 H   0  0  0  0  0  0
  -16.7762   -5.1731   15.8847 H   0  0  0  0  0  0
  -13.3516   -5.9298   14.1030 H   0  0  0  0  0  0
  -14.5067   11.3090   21.9777 H   0  0  0  0  0  0
   -2.2560    0.8546   17.3419 H   0  0  0  0  0  0
   -8.9893    8.4768   24.6436 H   0  0  0  0  0  0
  -14.6897  -10.4995   13.8570 H   0  0  0  0  0  0
   -5.3889   -0.8587   11.3287 H   0  0  0  0  0  0
  -11.7237   13.4567   26.2065 H   0  0  0  0  0  0
  1  2  1  0  0  0
  1  6  2  0  0  0
  1 87  1  0  0  0
  2 14  2  0  0  0
  2 88  1  0  0  0
  3  7  2  0  0  0
  3 13  1  0  0  0
  3 89  1  0  0  0
  4  8  1  0  0  0
  4 13  2  0  0  0
  4 90  1  0  0  0
  5  9  2  0  0  0
  5 15  1  0  0  0
  5 91  1  0  0  0
  6 17  1  0  0  0
  6 92  1  0  0  0
  7 16  1  0  0  0
  7 93  1  0  0  0
  8 16  2  0  0  0
  8 94  1  0  0  0
  9 18  1  0  0  0
  9 95  1  0  0  0
 10 14  1  0  0  0
 10 17  2  0  0  0
 10 96  1  0  0  0
 11 15  2  0  0  0
 11 19  1  0  0  0
 11 97  1  0  0  0
 12 65  2  0  0  0
 12 86  1  0  0  0
 12 98  1  0  0  0
 13 20  1  0  0  0
 14 15  1  0  0  0
 16 49  1  0  0  0
 17 50  1  0  0  0
 18 19  2  0  0  0
 18 67  1  0  0  0
 19 70  1  0  0  0
 20 21  2  0  0  0
 20 86  1  0  0  0
 21 44  1  0  0  0
 21 65  1  0  0  0
 22 25  2  0  0  0
 22 26  1  0  0  0
 22 99  1  0  0  0
 23 24  2  0  0  0
 23 66  1  0  0  0
 23100  1  0  0  0
 24 25  1  0  0  0
 24 27  1  0  0  0
 25 63  1  0  0  0
 26 66  1  0  0  0
 26 76  2  0  0  0
 27 70  1  0  0  0
 27 77  2  0  0  0
 28 42  1  0  0  0
 28 71  1  0  0  0
 28 78  2  0  0  0
 29 62  1  0  0  0
 29 68  1  0  0  0
 29 79  2  0  0  0
 30 51  1  0  0  0
 30 72  1  0  0  0
 30 80  2  0  0  0
 31 52  1  0  0  0
 31 73  1  0  0  0
 31 81  2  0  0  0
 32 42  1  0  0  0
 32 43  1  0  0  0
 32101  1  0  0  0
 32102  1  0  0  0
 33 38  1  0  0  0
 33 67  1  0  0  0
 33103  1  0  0  0
 33104  1  0  0  0
 34 39  1  0  0  0
 34 67  1  0  0  0
 34105  1  0  0  0
 34106  1  0  0  0
 35 40  1  0  0  0
 35 69  1  0  0  0
 35107  1  0  0  0
 35108  1  0  0  0
 36 41  1  0  0  0
 36 69  1  0  0  0
 36109  1  0  0  0
 36110  1  0  0  0
 37 43  1  0  0  0
 37 68  1  0  0  0
 37111  1  0  0  0
 37112  1  0  0  0
 38 74  1  0  0  0
 38113  1  0  0  0
 38114  1  0  0  0
 39 74  1  0  0  0
 39115  1  0  0  0
 39116  1  0  0  0
 40 75  1  0  0  0
 40117  1  0  0  0
 40118  1  0  0  0
 41 75  1  0  0  0
 41119  1  0  0  0
 41120  1  0  0  0
 42 68  1  0  0  0
 42121  1  0  0  0
 43 82  1  0  0  0
 43122  1  0  0  0
 44123  1  0  0  0
 44124  1  0  0  0
 44125  1  0  0  0
 45 64  1  0  0  0
 45126  1  0  0  0
 45127  1  0  0  0
 45128  1  0  0  0
 46 64  1  0  0  0
 46129  1  0  0  0
 46130  1  0  0  0
 46131  1  0  0  0
 47 64  1  0  0  0
 47132  1  0  0  0
 47133  1  0  0  0
 47134  1  0  0  0
 48 74  1  0  0  0
 48135  1  0  0  0
 48136  1  0  0  0
 48137  1  0  0  0
 49 71  1  0  0  0
 49138  1  0  0  0
 49139  1  0  0  0
 50 75  1  0  0  0
 50140  1  0  0  0
 50141  1  0  0  0
 51 53  1  0  0  0
 51142  1  0  0  0
 51143  1  0  0  0
 52 54  1  0  0  0
 52144  1  0  0  0
 52145  1  0  0  0
 53 55  1  0  0  0
 53146  1  0  0  0
 53147  1  0  0  0
 54 56  1  0  0  0
 54148  1  0  0  0
 54149  1  0  0  0
 55 57  1  0  0  0
 55150  1  0  0  0
 55151  1  0  0  0
 56 58  1  0  0  0
 56152  1  0  0  0
 56153  1  0  0  0
 57 59  1  0  0  0
 57154  1  0  0  0
 57155  1  0  0  0
 58 59  1  0  0  0
 58156  1  0  0  0
 58157  1  0  0  0
 59158  1  0  0  0
 59159  1  0  0  0
 60 61  1  0  0  0
 60 69  1  0  0  0
 60160  1  0  0  0
 60161  1  0  0  0
 61 72  1  0  0  0
 61162  1  0  0  0
 61163  1  0  0  0
 62 64  1  0  0  0
 62 73  1  0  0  0
 62164  1  0  0  0
 63 83  1  0  0  0
 63 84  1  0  0  0
 63 85  1  0  0  0
 66165  1  0  0  0
 70166  1  0  0  0
 71167  1  0  0  0
 72168  1  0  0  0
 73169  1  0  0  0
 74170  1  0  0  0
 75171  1  0  0  0
 82172  1  0  0  0
M  CHG  2  74   1  75   1
M  END
> <s_m_entry_id>
29

> <s_m_entry_name>
0000.1

> <s_m_Source_Path>
/mnt/home/boqing/Schrodinger_Projects/7JTO

> <s_m_Source_File>
0000.sdf

> <i_m_Source_File_Index>
1

> <s_m_job_name>
glide-dock_SP_0000_h

> <s_i_glide_gridfile>
glide-grid_crystal_ligand

> <i_i_glide_lignum>
1

> <i_i_glide_rotatable_bonds>
33

> <r_i_docking_score>
-8.80185902100568

> <r_i_glide_ligand_efficiency>
-0.102347197918671

> <r_i_glide_ligand_efficiency_sa>
-0.45176103883429

> <r_i_glide_ligand_efficiency_ln>
-1.61373277918176

> <r_i_glide_gscore>
-8.80185902100568

> <r_i_glide_evdw>
-69.528205871582

> <r_i_glide_ecoul>
-6.32620525360107

> <r_i_glide_energy>
-75.8544111251831

> <r_i_glide_einternal>
14.2156553268433

> <r_i_glide_emodel>
-118.834549636375

> <r_i_glide_intrahb_reward>
0

> <i_i_glide_confnum>
548

> <i_i_glide_posenum>
26

> <r_i_glide_eff_state_penalty>
0

> <Batch ID>
0

> <Smiles>
Cc1ncsc1-c1ccc(CNC(=O)[C@@H]2C[C@@H](O)CN2C(=O)[C@@H]([101NH][100C](=O)CCCCCCCCCC(=O)NC[101CH2][100N]2CCN(Cc3cccc(-c4ccc(N5CCN(C)CC5)c(NC(=O)c5c[nH]c(=O)cc5C(F)(F)F)c4)c3)CC2)C(C)(C)C)cc1

> <Shape>
0.209

> <Color>
0.128

> <Negative vol penalty>
0

> <chiral flag>
1

> <version>
0

> <r_i_glide_lipo>
-3.63978272472712

> <r_i_glide_hbond>
0

> <r_i_glide_metal>
0

> <r_i_glide_rewards>
-0.811455897409366

> <r_i_glide_erotb>
0.243864421082636

> <r_i_glide_esite>
-0.169143738332571

> <s_m_subgroup_title>
glide-dock_SP_0000_h_pv1

> <s_m_subgroupid>
glide-dock_SP_0000_h_pv1

> <b_m_subgroup_collapsed>
0

$$$$
