ligand
                    3D
 Structure written by MMmdl.
170177  0  0  1  0            999 V2000
   -1.7746    1.6645   28.8052 C   0  0  0  0  0  0
   -1.4032    0.5490   28.0008 C   0  0  0  0  0  0
    0.3154    1.8551   27.6433 C   0  0  0  0  0  0
   -3.0017    1.9036   29.6665 C   0  0  0  0  0  0
   -4.0548    0.9777   29.6871 C   0  0  0  0  0  0
   -4.2119    3.2781   31.2526 C   0  0  0  0  0  0
   -5.1713    1.2009   30.4850 C   0  0  0  0  0  0
   -5.2506    2.3528   31.2697 C   0  0  0  0  0  0
   -6.4722    2.5912   32.1527 C   0  0  0  0  0  0
   -8.2688    3.1903   30.5940 C   0  0  0  0  0  0
   -9.2037    4.3086   30.0817 C   0  0  1  0  0  0
   -3.0913    3.0588   30.4554 C   0  0  0  0  0  0
   -0.5252    2.8985   28.6995 S   0  0  0  0  0  0
   -0.2414    0.7093   27.3794 N   0  0  0  0  0  0
   -7.4390    3.5408   31.5922 N   0  0  0  0  0  0
   -8.3395    2.0640   30.1072 O   0  0  0  0  0  0
   -9.0929    4.5621   28.6246 N   0  0  0  0  0  0
  -10.4413    4.7969   28.0759 C   0  0  0  0  0  0
  -11.4226    4.7152   29.2471 C   0  0  1  0  0  0
  -10.6714    4.0025   30.3612 C   0  0  0  0  0  0
   -7.9319    4.7645   27.9320 C   0  0  0  0  0  0
  -11.8859    6.0002   29.5980 O   0  0  0  0  0  0
   -6.8161    4.6036   28.4306 O   0  0  0  0  0  0
   -7.9796    5.3117   26.4741 C   0  0  2  0  0  0
   -7.7573    4.2259   25.3527 C   0  0  0  0  0  0
   -7.0961    6.4841   26.3229 N   0  0  0  0  0  0
   -6.3353    3.6087   25.4170 C   0  0  0  0  0  0
   -8.8003    3.0809   25.4593 C   0  0  0  0  0  0
   -7.9355    4.8697   23.9547 C   0  0  0  0  0  0
   -7.0939    7.5898   27.0904 C   0  0  0  0  0  0
   -6.1907    8.7482   26.6381 C   0  0  0  0  0  0
   -6.9506   10.0986   26.6239 C   0  0  0  0  0  0
   -7.7790    7.7042   28.1098 O   0  0  0  0  0  0
   -8.0891   10.1606   25.5942 C   0  0  0  0  0  0
   -8.9175   11.4378   25.7645 C   0  0  0  0  0  0
  -10.1303   11.5562   24.8421 C   0  0  0  0  0  0
  -11.0779   10.3474   24.9244 C   0  0  0  0  0  0
  -12.3564   10.5742   24.1194 C   0  0  0  0  0  0
  -13.0554    9.2520   23.7612 C   0  0  0  0  0  0
  -14.2893    9.4684   22.8735 C   0  0  0  0  0  0
  -14.0085    9.9647   21.4427 C   0  0  0  0  0  0
  -15.0884   10.2371   20.6856 N   0  0  0  0  0  0
  -12.8509   10.0993   21.0459 O   0  0  0  0  0  0
  -14.9757   10.7044   19.2958 C   0  0  0  0  0  0
  -14.6345    9.5986   18.2580 C   0  0  0  0  0  0
  -13.2360    9.1488   18.2923 N   0  0  0  0  0  0
  -13.0339    7.9414   17.4892 C   0  0  0  0  0  0
  -11.5803    7.4348   17.6657 C   0  0  0  0  0  0
  -10.6112    8.4483   17.2023 N   0  0  0  0  0  0
  -10.8247    9.6747   17.9818 C   0  0  0  0  0  0
  -12.2815   10.1795   17.8370 C   0  0  0  0  0  0
   -9.2176    8.0106   17.3375 C   0  0  0  0  0  0
   -8.9084    6.8232   16.4351 C   0  0  0  0  0  0
   -8.7967    7.0073   15.0571 C   0  0  0  0  0  0
   -8.5479    5.9165   14.2020 C   0  0  0  0  0  0
   -8.3975    4.6355   14.7810 C   0  0  0  0  0  0
   -8.4986    4.4652   16.1626 C   0  0  0  0  0  0
   -8.7543    5.5560   16.9861 C   0  0  0  0  0  0
   -8.4691    6.1050   12.6970 C   0  0  0  0  0  0
   -8.5414    5.0006   11.8349 C   0  0  0  0  0  0
   -8.5044    5.1691   10.4293 C   0  0  0  0  0  0
   -8.3536    6.4763    9.8816 C   0  0  0  0  0  0
   -8.2872    7.5688   10.7608 C   0  0  0  0  0  0
   -8.3470    7.3871   12.1410 C   0  0  0  0  0  0
   -8.3009    6.7000    8.4825 N   0  0  0  0  0  0
   -8.3421    8.0595    7.9068 C   0  0  0  0  0  0
   -6.9423    8.6879    7.7160 C   0  0  0  0  0  0
   -6.1895    7.8554    6.7713 N   0  0  0  0  0  0
   -6.0498    6.5148    7.3404 C   0  0  0  0  0  0
   -7.4445    5.8782    7.5926 C   0  0  0  0  0  0
   -4.8865    8.4516    6.4864 C   0  0  0  0  0  0
   -8.6456    4.0440    9.5229 N   0  0  0  0  0  0
   -9.0489    2.7764    9.8788 C   0  0  0  0  0  0
   -9.0807    1.8088    8.7407 C   0  0  0  0  0  0
   -8.7183    2.1850    7.5064 C   0  0  0  0  0  0
   -8.6969    1.3965    6.3984 N   0  0  0  0  0  0
   -9.0860    0.0763    6.4298 C   0  0  0  0  0  0
   -9.4913   -0.3850    7.7880 C   0  0  0  0  0  0
   -9.5064    0.4040    8.9081 C   0  0  0  0  0  0
   -9.9561   -0.1801   10.2675 C   0  0  0  0  0  0
   -9.3654    2.4579   11.0155 O   0  0  0  0  0  0
   -9.0814   -0.6407    5.4346 O   0  0  0  0  0  0
   -2.1256   -0.7618   27.7647 C   0  0  0  0  0  0
  -11.0309    0.4653   10.7338 F   0  0  0  0  0  0
  -10.3111   -1.4630   10.1430 F   0  0  0  0  0  0
   -8.9571   -0.1475   11.1530 F   0  0  0  0  0  0
    1.2673    2.1491   27.2194 H   0  0  0  0  0  0
   -4.0131    0.0916   29.0907 H   0  0  0  0  0  0
   -4.2753    4.1699   31.8577 H   0  0  0  0  0  0
   -5.9799    0.4838   30.4902 H   0  0  0  0  0  0
   -6.1313    2.9851   33.1115 H   0  0  0  0  0  0
   -6.9557    1.6388   32.3866 H   0  0  0  0  0  0
   -8.9637    5.2343   30.6052 H   0  0  0  0  0  0
   -2.2906    3.7808   30.4573 H   0  0  0  0  0  0
   -7.4358    4.4863   31.9430 H   0  0  0  0  0  0
  -10.5345    5.7672   27.5816 H   0  0  0  0  0  0
  -10.6637    4.0319   27.3358 H   0  0  0  0  0  0
  -12.2916    4.1250   28.9567 H   0  0  0  0  0  0
  -10.9427    4.3509   31.3570 H   0  0  0  0  0  0
  -10.8283    2.9252   30.2984 H   0  0  0  0  0  0
  -12.2874    6.3547   28.7817 H   0  0  0  0  0  0
   -8.9610    5.7359   26.2909 H   0  0  0  0  0  0
   -6.4836    6.4518   25.5246 H   0  0  0  0  0  0
   -6.1720    2.9046   24.5991 H   0  0  0  0  0  0
   -6.1714    3.0550   26.3426 H   0  0  0  0  0  0
   -5.5575    4.3698   25.3508 H   0  0  0  0  0  0
   -8.6455    2.3255   24.6851 H   0  0  0  0  0  0
   -9.8207    3.4470   25.3363 H   0  0  0  0  0  0
   -8.7560    2.5655   26.4205 H   0  0  0  0  0  0
   -7.8602    4.1281   23.1598 H   0  0  0  0  0  0
   -7.1827    5.6285   23.7508 H   0  0  0  0  0  0
   -8.9122    5.3425   23.8551 H   0  0  0  0  0  0
   -5.3529    8.8077   27.3320 H   0  0  0  0  0  0
   -5.7672    8.5466   25.6541 H   0  0  0  0  0  0
   -7.3413   10.3078   27.6243 H   0  0  0  0  0  0
   -6.2856   10.9269   26.4005 H   0  0  0  0  0  0
   -7.6839   10.1138   24.5829 H   0  0  0  0  0  0
   -8.7354    9.2906   25.7197 H   0  0  0  0  0  0
   -9.2541   11.5083   26.7963 H   0  0  0  0  0  0
   -8.2896   12.3074   25.5974 H   0  0  0  0  0  0
  -10.6767   12.4688   25.0971 H   0  0  0  0  0  0
   -9.7876   11.6866   23.8135 H   0  0  0  0  0  0
  -10.5601    9.4746   24.5197 H   0  0  0  0  0  0
  -11.3267   10.1123   25.9623 H   0  0  0  0  0  0
  -13.0326   11.2305   24.6715 H   0  0  0  0  0  0
  -12.0980   11.1094   23.2028 H   0  0  0  0  0  0
  -12.3538    8.5704   23.2730 H   0  0  0  0  0  0
  -13.3596    8.7494   24.6810 H   0  0  0  0  0  0
  -14.8738    8.5508   22.8216 H   0  0  0  0  0  0
  -14.9075   10.2114   23.3783 H   0  0  0  0  0  0
  -16.0183   10.1439   21.0768 H   0  0  0  0  0  0
  -15.9514   11.1161   19.0356 H   0  0  0  0  0  0
  -14.2930   11.5517   19.2409 H   0  0  0  0  0  0
  -15.2848    8.7441   18.4550 H   0  0  0  0  0  0
  -14.8842    9.9341   17.2526 H   0  0  0  0  0  0
  -13.2372    8.1558   16.4353 H   0  0  0  0  0  0
  -13.7285    7.1600   17.8086 H   0  0  0  0  0  0
  -11.3938    7.2172   18.7194 H   0  0  0  0  0  0
  -11.4588    6.5016   17.1162 H   0  0  0  0  0  0
  -10.6121    9.4833   19.0368 H   0  0  0  0  0  0
  -10.1361   10.4505   17.6359 H   0  0  0  0  0  0
  -12.4785   10.4405   16.7997 H   0  0  0  0  0  0
  -12.3855   11.0815   18.4356 H   0  0  0  0  0  0
   -8.5516    8.8280   17.0538 H   0  0  0  0  0  0
   -8.9895    7.7708   18.3790 H   0  0  0  0  0  0
   -8.9262    7.9958   14.6491 H   0  0  0  0  0  0
   -8.2035    3.7767   14.1640 H   0  0  0  0  0  0
   -8.3769    3.4800   16.5950 H   0  0  0  0  0  0
   -8.8393    5.4165   18.0551 H   0  0  0  0  0  0
   -8.6402    4.0320   12.2618 H   0  0  0  0  0  0
   -8.1824    8.5684   10.3750 H   0  0  0  0  0  0
   -8.2889    8.2557   12.7781 H   0  0  0  0  0  0
   -8.8007    7.9737    6.9194 H   0  0  0  0  0  0
   -9.0197    8.7203    8.4486 H   0  0  0  0  0  0
   -6.4172    8.7433    8.6724 H   0  0  0  0  0  0
   -7.0475    9.7084    7.3408 H   0  0  0  0  0  0
   -5.4890    6.5748    8.2763 H   0  0  0  0  0  0
   -5.4847    5.8875    6.6482 H   0  0  0  0  0  0
   -7.2328    4.8777    7.9373 H   0  0  0  0  0  0
   -7.9830    5.7877    6.6465 H   0  0  0  0  0  0
   -5.0027    9.4389    6.0326 H   0  0  0  0  0  0
   -4.3311    7.8365    5.7756 H   0  0  0  0  0  0
   -4.2758    8.5631    7.3858 H   0  0  0  0  0  0
   -8.5015    4.2403    8.5487 H   0  0  0  0  0  0
   -8.3834    3.1811    7.2511 H   0  0  0  0  0  0
   -8.4056    1.7634    5.5035 H   0  0  0  0  0  0
   -9.7972   -1.4181    7.8781 H   0  0  0  0  0  0
   -2.4164   -1.2342   28.7053 H   0  0  0  0  0  0
   -1.5099   -1.4955   27.2365 H   0  0  0  0  0  0
   -3.0266   -0.6263   27.1578 H   0  0  0  0  0  0
  1  2  2  0  0  0
  1  4  1  0  0  0
  1 13  1  0  0  0
  2 14  1  0  0  0
  2 83  1  0  0  0
  3 13  1  0  0  0
  3 14  2  0  0  0
  3 87  1  0  0  0
  4  5  1  0  0  0
  4 12  2  0  0  0
  5  7  2  0  0  0
  5 88  1  0  0  0
  6  8  2  0  0  0
  6 12  1  0  0  0
  6 89  1  0  0  0
  7  8  1  0  0  0
  7 90  1  0  0  0
  8  9  1  0  0  0
  9 15  1  0  0  0
  9 91  1  0  0  0
  9 92  1  0  0  0
 10 11  1  0  0  0
 10 15  1  0  0  0
 10 16  2  0  0  0
 11 17  1  0  0  0
 11 20  1  0  0  0
 11 93  1  0  0  0
 12 94  1  0  0  0
 15 95  1  0  0  0
 17 18  1  0  0  0
 17 21  1  0  0  0
 18 19  1  0  0  0
 18 96  1  0  0  0
 18 97  1  0  0  0
 19 20  1  0  0  0
 19 22  1  0  0  0
 19 98  1  0  0  0
 20 99  1  0  0  0
 20100  1  0  0  0
 21 23  2  0  0  0
 21 24  1  0  0  0
 22101  1  0  0  0
 24 25  1  0  0  0
 24 26  1  0  0  0
 24102  1  0  0  0
 25 27  1  0  0  0
 25 28  1  0  0  0
 25 29  1  0  0  0
 26 30  1  0  0  0
 26103  1  0  0  0
 27104  1  0  0  0
 27105  1  0  0  0
 27106  1  0  0  0
 28107  1  0  0  0
 28108  1  0  0  0
 28109  1  0  0  0
 29110  1  0  0  0
 29111  1  0  0  0
 29112  1  0  0  0
 30 31  1  0  0  0
 30 33  2  0  0  0
 31 32  1  0  0  0
 31113  1  0  0  0
 31114  1  0  0  0
 32 34  1  0  0  0
 32115  1  0  0  0
 32116  1  0  0  0
 34 35  1  0  0  0
 34117  1  0  0  0
 34118  1  0  0  0
 35 36  1  0  0  0
 35119  1  0  0  0
 35120  1  0  0  0
 36 37  1  0  0  0
 36121  1  0  0  0
 36122  1  0  0  0
 37 38  1  0  0  0
 37123  1  0  0  0
 37124  1  0  0  0
 38 39  1  0  0  0
 38125  1  0  0  0
 38126  1  0  0  0
 39 40  1  0  0  0
 39127  1  0  0  0
 39128  1  0  0  0
 40 41  1  0  0  0
 40129  1  0  0  0
 40130  1  0  0  0
 41 42  1  0  0  0
 41 43  2  0  0  0
 42 44  1  0  0  0
 42131  1  0  0  0
 44 45  1  0  0  0
 44132  1  0  0  0
 44133  1  0  0  0
 45 46  1  0  0  0
 45134  1  0  0  0
 45135  1  0  0  0
 46 47  1  0  0  0
 46 51  1  0  0  0
 47 48  1  0  0  0
 47136  1  0  0  0
 47137  1  0  0  0
 48 49  1  0  0  0
 48138  1  0  0  0
 48139  1  0  0  0
 49 50  1  0  0  0
 49 52  1  0  0  0
 50 51  1  0  0  0
 50140  1  0  0  0
 50141  1  0  0  0
 51142  1  0  0  0
 51143  1  0  0  0
 52 53  1  0  0  0
 52144  1  0  0  0
 52145  1  0  0  0
 53 54  1  0  0  0
 53 58  2  0  0  0
 54 55  2  0  0  0
 54146  1  0  0  0
 55 56  1  0  0  0
 55 59  1  0  0  0
 56 57  2  0  0  0
 56147  1  0  0  0
 57 58  1  0  0  0
 57148  1  0  0  0
 58149  1  0  0  0
 59 60  1  0  0  0
 59 64  2  0  0  0
 60 61  2  0  0  0
 60150  1  0  0  0
 61 62  1  0  0  0
 61 72  1  0  0  0
 62 63  2  0  0  0
 62 65  1  0  0  0
 63 64  1  0  0  0
 63151  1  0  0  0
 64152  1  0  0  0
 65 66  1  0  0  0
 65 70  1  0  0  0
 66 67  1  0  0  0
 66153  1  0  0  0
 66154  1  0  0  0
 67 68  1  0  0  0
 67155  1  0  0  0
 67156  1  0  0  0
 68 69  1  0  0  0
 68 71  1  0  0  0
 69 70  1  0  0  0
 69157  1  0  0  0
 69158  1  0  0  0
 70159  1  0  0  0
 70160  1  0  0  0
 71161  1  0  0  0
 71162  1  0  0  0
 71163  1  0  0  0
 72 73  1  0  0  0
 72164  1  0  0  0
 73 74  1  0  0  0
 73 81  2  0  0  0
 74 75  2  0  0  0
 74 79  1  0  0  0
 75 76  1  0  0  0
 75165  1  0  0  0
 76 77  1  0  0  0
 76166  1  0  0  0
 77 78  1  0  0  0
 77 82  2  0  0  0
 78 79  2  0  0  0
 78167  1  0  0  0
 79 80  1  0  0  0
 80 84  1  0  0  0
 80 85  1  0  0  0
 80 86  1  0  0  0
 83168  1  0  0  0
 83169  1  0  0  0
 83170  1  0  0  0
M  END
> <s_m_entry_id>
35

> <s_m_entry_name>
7jto.1_mol3

> <s_m_source_file>
ligprep_1.maegz

> <i_m_source_file_index>
1

> <i_lp_mmshare_version>
38013

> <i_f3d_flags>
0

> <s_lp_Force_Field>
OPLS3

> <r_lp_Energy>
125.123071786353

> <b_lp_Chiralities_Consistent>
1

> <s_lp_Variant>
ligand-1

> <s_m_job_name>
glide-dock_SP_ligprep_ligand

> <s_i_glide_gridfile>
glide-grid_crystal_ligand

> <i_i_glide_lignum>
1

> <i_i_glide_rotatable_bonds>
33

> <r_i_docking_score>
-8.53315097248806

> <r_i_glide_ligand_efficiency>
-0.0992226857266053

> <r_i_glide_ligand_efficiency_sa>
-0.43796942653378

> <r_i_glide_ligand_efficiency_ln>
-1.56446784720682

> <r_i_glide_gscore>
-8.53315097248806

> <r_i_glide_evdw>
-57.0047988891602

> <r_i_glide_ecoul>
-13.3499059677124

> <r_i_glide_energy>
-70.3547048568726

> <r_i_glide_einternal>
4.41327095031738

> <r_i_glide_emodel>
-112.053197497255

> <r_i_glide_intrahb_reward>
0

> <i_i_glide_confnum>
1024

> <i_i_glide_posenum>
66

> <r_i_glide_eff_state_penalty>
0

> <r_i_glide_lipo>
-2.67702381937458

> <r_i_glide_hbond>
-1.04813023802495

> <r_i_glide_metal>
0

> <r_i_glide_rewards>
-0.13828991333635

> <r_i_glide_erotb>
0.245272216261055

> <r_i_glide_esite>
-0.0622533783983686

> <s_m_subgroup_title>
glide-dock_SP_ligprep_ligand_pv1

> <s_m_subgroupid>
glide-dock_SP_ligprep_ligand_pv1

> <b_m_subgroup_collapsed>
0

$$$$
