ligand
                    3D
 Structure written by MMmdl.
144152  0  0  1  0            999 V2000
   27.3201   52.5935    4.1594 C   0  0  0  0  0  0
   27.9546   50.3076    4.5265 C   0  0  0  0  0  0
   37.3032   45.6160   -1.9782 C   0  0  0  0  0  0
   27.4683   51.5073    5.0086 C   0  0  0  0  0  0
   28.2988   50.1823    3.1882 C   0  0  0  0  0  0
   33.1137   53.0255   -3.9525 C   0  0  0  0  0  0
   31.4692   51.4768   -2.7959 C   0  0  2  0  0  0
   32.3297   51.3315   -1.4958 C   0  0  0  0  0  0
   34.5076   48.5251   -0.5386 C   0  0  0  0  0  0
   32.1007   49.7157    0.4113 C   0  0  1  0  0  0
   34.3079   48.6545    0.8634 C   0  0  0  0  0  0
   35.9473   46.9022    1.2448 C   0  0  0  0  0  0
   33.3002   49.6743    1.3844 C   0  0  0  0  0  0
   33.8320   54.2942   -6.0375 C   0  0  0  0  0  0
   33.7145   49.3999   -1.5145 C   0  0  0  0  0  0
   35.4290   47.5783   -1.0039 C   0  0  0  0  0  0
   36.1434   46.7646   -0.1176 C   0  0  0  0  0  0
   35.0424   47.8359    1.7317 C   0  0  0  0  0  0
   33.2513   54.4207   -4.6096 C   0  0  2  0  0  0
   30.9347   50.5485    1.0089 C   0  0  0  0  0  0
   28.5482   51.1243    0.8017 C   0  0  2  0  0  0
   28.5466   52.4471    0.0081 C   0  0  0  0  0  0
   27.3648   53.3284    0.3900 C   0  0  0  0  0  0
   27.5007   53.7080    1.8651 C   0  0  0  0  0  0
   27.6585   52.5057    2.7997 C   0  0  0  0  0  0
   28.1622   51.2623    2.2959 C   0  0  0  0  0  0
   36.1179   45.0243   -2.7451 C   0  0  0  0  0  0
   35.8162   45.4616   -4.0443 C   0  0  0  0  0  0
   34.0553   44.0033   -4.1221 C   0  0  0  0  0  0
   34.3561   43.5663   -2.8203 C   0  0  0  0  0  0
   32.8788   43.4165   -4.9133 C   0  0  0  0  0  0
   32.9132   41.0266   -4.4237 C   0  0  0  0  0  0
   32.7535   38.6855   -3.6192 C   0  0  0  0  0  0
   31.6609   37.6700   -4.0123 C   0  0  0  0  0  0
   30.3783   37.8498   -3.1989 C   0  0  0  0  0  0
   29.8619   39.3188   -3.2347 C   0  0  2  0  0  0
   30.9480   40.4080   -2.9755 C   0  0  0  0  0  0
   28.7484   39.3364   -0.9493 C   0  0  0  0  0  0
   27.4146   39.4286   -0.5267 C   0  0  0  0  0  0
   26.6627   39.5826   -1.7870 C   0  0  0  0  0  0
   25.1642   39.6275   -2.0390 C   0  0  0  0  0  0
   24.6709   40.2517   -3.1943 C   0  0  0  0  0  0
   23.2972   40.2752   -3.4493 C   0  0  0  0  0  0
   22.4077   39.6551   -2.5583 C   0  0  0  0  0  0
   22.9007   39.0277   -1.4213 C   0  0  0  0  0  0
   24.2660   39.0139   -1.1553 C   0  0  0  0  0  0
   20.4010   40.3565   -3.7811 C   0  0  0  0  0  0
   20.5490   39.9896   -5.1243 C   0  0  0  0  0  0
   19.8884   40.7109   -6.1219 C   0  0  0  0  0  0
   19.0803   41.7953   -5.7792 C   0  0  0  0  0  0
   18.9294   42.1596   -4.4410 C   0  0  0  0  0  0
   19.5868   41.4406   -3.4437 C   0  0  0  0  0  0
   26.9140   39.3677    0.8367 C   0  0  0  0  0  0
   31.0873   50.2204   -3.6954 C   0  0  0  0  0  0
   29.9302   50.6307   -4.6434 C   0  0  0  0  0  0
   32.2553   49.7667   -4.6103 C   0  0  0  0  0  0
   30.5175   49.0092   -2.9013 C   0  0  0  0  0  0
   34.0379   56.6785   -4.1462 C   0  0  0  0  0  0
   19.4270   41.7914   -2.1497 F   0  0  0  0  0  0
   18.4415   42.4926   -6.7448 F   0  0  0  0  0  0
   32.5524   50.1124   -0.9496 N   0  0  0  0  0  0
   29.7190   50.2946    0.4847 N   0  0  0  0  0  0
   34.7754   44.9645   -4.7653 N   0  0  0  0  0  0
   35.3980   44.0638   -2.0975 N   0  0  0  0  0  0
   32.1752   40.0356   -3.7304 N   0  0  0  0  0  0
   28.7176   39.4381   -2.2985 N   0  0  0  0  0  0
   27.5220   39.6441   -2.8076 N   0  0  0  0  0  0
   31.8690   52.6728   -3.5685 N   0  0  0  0  0  0
   27.7448   38.7624    1.6872 N   0  0  0  0  0  0
   29.9307   39.1681   -0.2604 N   0  0  0  0  0  0
   34.0497   55.2860   -3.7110 N   0  0  0  0  0  0
   32.6989   52.3635   -0.9295 O   0  0  0  0  0  0
   31.1645   51.4104    1.8574 O   0  0  0  0  0  0
   37.0462   45.8198   -0.5787 O   0  0  0  0  0  0
   32.3026   42.2428   -4.3309 O   0  0  0  0  0  0
   33.9730   40.8449   -5.0306 O   0  0  0  0  0  0
   34.1097   52.3154   -3.7992 O   0  0  0  0  0  0
   21.0406   39.6416   -2.7915 O   0  0  0  0  0  0
   25.8283   39.8294    1.1642 O   0  0  0  0  0  0
   26.9384   53.5241    4.5499 H   0  0  0  0  0  0
   28.0689   49.4647    5.1929 H   0  0  0  0  0  0
   37.6524   46.5445   -2.4360 H   0  0  0  0  0  0
   38.1316   44.9130   -2.0622 H   0  0  0  0  0  0
   27.2009   51.6004    6.0521 H   0  0  0  0  0  0
   28.6771   49.2382    2.8248 H   0  0  0  0  0  0
   30.5204   51.7947   -2.3612 H   0  0  0  0  0  0
   31.7039   48.7038    0.3124 H   0  0  0  0  0  0
   36.5010   46.2793    1.9312 H   0  0  0  0  0  0
   33.7576   50.6624    1.4412 H   0  0  0  0  0  0
   32.9535   49.4037    2.3852 H   0  0  0  0  0  0
   33.6259   55.1853   -6.6302 H   0  0  0  0  0  0
   33.4295   53.4441   -6.5904 H   0  0  0  0  0  0
   34.9157   54.1691   -6.0107 H   0  0  0  0  0  0
   33.3500   48.7228   -2.2831 H   0  0  0  0  0  0
   34.4107   50.0820   -2.0148 H   0  0  0  0  0  0
   35.5808   47.4758   -2.0663 H   0  0  0  0  0  0
   34.8995   47.9309    2.7973 H   0  0  0  0  0  0
   32.2482   54.8468   -4.6691 H   0  0  0  0  0  0
   27.7259   50.5380    0.3879 H   0  0  0  0  0  0
   28.5258   52.2402   -1.0637 H   0  0  0  0  0  0
   29.4753   52.9927    0.1888 H   0  0  0  0  0  0
   27.3453   54.2273   -0.2283 H   0  0  0  0  0  0
   26.4219   52.8082    0.2103 H   0  0  0  0  0  0
   26.6295   54.2904    2.1627 H   0  0  0  0  0  0
   28.3621   54.3661    2.0006 H   0  0  0  0  0  0
   36.4130   46.2260   -4.5244 H   0  0  0  0  0  0
   33.7586   42.8045   -2.3399 H   0  0  0  0  0  0
   32.0998   44.1760   -4.9836 H   0  0  0  0  0  0
   33.2025   43.2017   -5.9325 H   0  0  0  0  0  0
   33.0579   38.5314   -2.5857 H   0  0  0  0  0  0
   33.6419   38.5554   -4.2414 H   0  0  0  0  0  0
   31.4225   37.7580   -5.0680 H   0  0  0  0  0  0
   32.0317   36.6547   -3.8706 H   0  0  0  0  0  0
   30.5835   37.5272   -2.1789 H   0  0  0  0  0  0
   29.6182   37.1551   -3.5760 H   0  0  0  0  0  0
   29.5014   39.4940   -4.2525 H   0  0  0  0  0  0
   31.2301   40.4660   -1.9292 H   0  0  0  0  0  0
   30.5286   41.3821   -3.2303 H   0  0  0  0  0  0
   25.3540   40.7201   -3.8872 H   0  0  0  0  0  0
   22.9299   40.7643   -4.3369 H   0  0  0  0  0  0
   22.2162   38.5433   -0.7393 H   0  0  0  0  0  0
   24.6274   38.5003   -0.2822 H   0  0  0  0  0  0
   21.1709   39.1484   -5.3876 H   0  0  0  0  0  0
   20.0029   40.4288   -7.1595 H   0  0  0  0  0  0
   18.2987   42.9957   -4.1797 H   0  0  0  0  0  0
   29.5862   49.8007   -5.2643 H   0  0  0  0  0  0
   30.2219   51.4269   -5.3265 H   0  0  0  0  0  0
   29.0668   51.0070   -4.0913 H   0  0  0  0  0  0
   32.0606   48.7880   -5.0535 H   0  0  0  0  0  0
   33.2102   49.7085   -4.0948 H   0  0  0  0  0  0
   32.4074   50.4588   -5.4401 H   0  0  0  0  0  0
   30.0544   48.2775   -3.5660 H   0  0  0  0  0  0
   29.7423   49.3215   -2.2012 H   0  0  0  0  0  0
   31.2633   48.4494   -2.3495 H   0  0  0  0  0  0
   34.6212   57.2984   -3.4701 H   0  0  0  0  0  0
   33.0212   57.0728   -4.1821 H   0  0  0  0  0  0
   34.4778   56.7887   -5.1383 H   0  0  0  0  0  0
   29.6027   49.5581   -0.1963 H   0  0  0  0  0  0
   31.1095   53.3042   -3.7779 H   0  0  0  0  0  0
   27.4785   38.6284    2.6503 H   0  0  0  0  0  0
   28.6077   38.3651    1.3523 H   0  0  0  0  0  0
   29.9615   39.1157    0.7445 H   0  0  0  0  0  0
   30.8152   39.1076   -0.7420 H   0  0  0  0  0  0
   33.6903   55.2052   -2.7680 H   0  0  0  0  0  0
  1  4  1  0  0  0
  1 25  2  0  0  0
  1 80  1  0  0  0
  2  4  2  0  0  0
  2  5  1  0  0  0
  2 81  1  0  0  0
  3 27  1  0  0  0
  3 74  1  0  0  0
  3 82  1  0  0  0
  3 83  1  0  0  0
  4 84  1  0  0  0
  5 26  2  0  0  0
  5 85  1  0  0  0
  6 19  1  0  0  0
  6 68  1  0  0  0
  6 77  2  0  0  0
  7  8  1  0  0  0
  7 54  1  0  0  0
  7 68  1  0  0  0
  7 86  1  0  0  0
  8 61  1  0  0  0
  8 72  2  0  0  0
  9 11  1  0  0  0
  9 15  1  0  0  0
  9 16  2  0  0  0
 10 13  1  0  0  0
 10 20  1  0  0  0
 10 61  1  0  0  0
 10 87  1  0  0  0
 11 13  1  0  0  0
 11 18  2  0  0  0
 12 17  2  0  0  0
 12 18  1  0  0  0
 12 88  1  0  0  0
 13 89  1  0  0  0
 13 90  1  0  0  0
 14 19  1  0  0  0
 14 91  1  0  0  0
 14 92  1  0  0  0
 14 93  1  0  0  0
 15 61  1  0  0  0
 15 94  1  0  0  0
 15 95  1  0  0  0
 16 17  1  0  0  0
 16 96  1  0  0  0
 17 74  1  0  0  0
 18 97  1  0  0  0
 19 71  1  0  0  0
 19 98  1  0  0  0
 20 62  1  0  0  0
 20 73  2  0  0  0
 21 22  1  0  0  0
 21 26  1  0  0  0
 21 62  1  0  0  0
 21 99  1  0  0  0
 22 23  1  0  0  0
 22100  1  0  0  0
 22101  1  0  0  0
 23 24  1  0  0  0
 23102  1  0  0  0
 23103  1  0  0  0
 24 25  1  0  0  0
 24104  1  0  0  0
 24105  1  0  0  0
 25 26  1  0  0  0
 27 28  1  0  0  0
 27 64  2  0  0  0
 28 63  2  0  0  0
 28106  1  0  0  0
 29 30  2  0  0  0
 29 31  1  0  0  0
 29 63  1  0  0  0
 30 64  1  0  0  0
 30107  1  0  0  0
 31 75  1  0  0  0
 31108  1  0  0  0
 31109  1  0  0  0
 32 65  1  0  0  0
 32 75  1  0  0  0
 32 76  2  0  0  0
 33 34  1  0  0  0
 33 65  1  0  0  0
 33110  1  0  0  0
 33111  1  0  0  0
 34 35  1  0  0  0
 34112  1  0  0  0
 34113  1  0  0  0
 35 36  1  0  0  0
 35114  1  0  0  0
 35115  1  0  0  0
 36 37  1  0  0  0
 36 66  1  0  0  0
 36116  1  0  0  0
 37 65  1  0  0  0
 37117  1  0  0  0
 37118  1  0  0  0
 38 39  2  0  0  0
 38 66  1  0  0  0
 38 70  1  0  0  0
 39 40  1  0  0  0
 39 53  1  0  0  0
 40 41  1  0  0  0
 40 67  2  0  0  0
 41 42  1  0  0  0
 41 46  2  0  0  0
 42 43  2  0  0  0
 42119  1  0  0  0
 43 44  1  0  0  0
 43120  1  0  0  0
 44 45  2  0  0  0
 44 78  1  0  0  0
 45 46  1  0  0  0
 45121  1  0  0  0
 46122  1  0  0  0
 47 48  1  0  0  0
 47 52  2  0  0  0
 47 78  1  0  0  0
 48 49  2  0  0  0
 48123  1  0  0  0
 49 50  1  0  0  0
 49124  1  0  0  0
 50 51  2  0  0  0
 50 60  1  0  0  0
 51 52  1  0  0  0
 51125  1  0  0  0
 52 59  1  0  0  0
 53 69  1  0  0  0
 53 79  2  0  0  0
 54 55  1  0  0  0
 54 56  1  0  0  0
 54 57  1  0  0  0
 55126  1  0  0  0
 55127  1  0  0  0
 55128  1  0  0  0
 56129  1  0  0  0
 56130  1  0  0  0
 56131  1  0  0  0
 57132  1  0  0  0
 57133  1  0  0  0
 57134  1  0  0  0
 58 71  1  0  0  0
 58135  1  0  0  0
 58136  1  0  0  0
 58137  1  0  0  0
 62138  1  0  0  0
 66 67  1  0  0  0
 68139  1  0  0  0
 69140  1  0  0  0
 69141  1  0  0  0
 70142  1  0  0  0
 70143  1  0  0  0
 71144  1  0  0  0
M  END
> <s_m_entry_id>
24

> <s_m_entry_name>
6w7o.1_mol3

> <s_m_source_file>
ligprep_1.maegz

> <i_m_source_file_index>
1

> <i_lp_mmshare_version>
38013

> <i_f3d_flags>
0

> <s_lp_Force_Field>
OPLS3

> <r_lp_Energy>
108.514950768214

> <b_lp_Chiralities_Consistent>
1

> <s_lp_Variant>
ligand-1

> <s_m_job_name>
glide-dock_SP_ligprep_ligand

> <s_i_glide_gridfile>
glide-grid_crystal_ligand

> <i_i_glide_lignum>
1

> <i_i_glide_rotatable_bonds>
22

> <r_i_docking_score>
-4.56358230701168

> <r_i_glide_ligand_efficiency>
-0.0577668646457175

> <r_i_glide_ligand_efficiency_sa>
-0.247868397803379

> <r_i_glide_ligand_efficiency_ln>
-0.849916496519268

> <r_i_glide_gscore>
-4.56358230701168

> <r_i_glide_evdw>
-42.8636360168457

> <r_i_glide_ecoul>
-1.0126873254776

> <r_i_glide_energy>
-43.8763233423233

> <r_i_glide_einternal>
21.8442268371582

> <r_i_glide_emodel>
-43.7361139119622

> <r_i_glide_intrahb_reward>
0

> <i_i_glide_confnum>
63

> <i_i_glide_posenum>
184

> <r_i_glide_eff_state_penalty>
0

> <r_i_glide_lipo>
-1.54071224390742

> <r_i_glide_hbond>
-0.246525576194348

> <r_i_glide_metal>
0

> <r_i_glide_rewards>
-0.398836634419365

> <r_i_glide_erotb>
0.140865496364103

> <r_i_glide_esite>
-0.22328844919072

> <s_m_subgroup_title>
glide-dock_SP_ligprep_ligand_pv1

> <s_m_subgroupid>
glide-dock_SP_ligprep_ligand_pv1

> <b_m_subgroup_collapsed>
0

$$$$
