ligand
                    3D
 Structure written by MMmdl.
107113  0  0  1  0            999 V2000
   59.2103   33.8196   50.3195 N   0  0  0  0  0  0
   59.1157   35.6447   52.0351 C   0  0  0  0  0  0
   65.7181   32.2573   48.9364 O   0  0  0  0  0  0
   59.7940   34.7999   50.9749 C   0  0  0  0  0  0
   63.5375   39.7214   47.3773 C   0  0  0  0  0  0
   64.0392   39.4873   46.0987 C   0  0  0  0  0  0
   64.2517   38.1845   45.6564 C   0  0  0  0  0  0
   63.9664   37.1077   46.4918 C   0  0  0  0  0  0
   63.0493   36.4614   50.1563 C   0  0  0  0  0  0
   62.0307   35.8979   51.0130 C   0  0  0  0  0  0
   63.5102   37.4239   52.2636 C   0  0  0  0  0  0
   64.1312   38.1985   53.3458 C   0  0  0  0  0  0
   63.9538   38.8307   55.7152 C   0  0  0  0  0  0
   63.5163   40.3063   55.6649 C   0  0  0  0  0  0
   61.2883   34.0134   49.6192 C   0  0  0  0  0  0
   63.8371   41.0929   56.9451 C   0  0  0  0  0  0
   63.4795   42.5778   56.7984 C   0  0  0  0  0  0
   63.8035   43.4201   58.0470 C   0  0  0  0  0  0
   63.5461   44.9278   57.8494 C   0  0  0  0  0  0
   64.5499   45.5834   56.8786 C   0  0  0  0  0  0
   64.3050   47.0814   56.6219 C   0  0  0  0  0  0
   66.3945   47.8603   55.5850 C   0  0  0  0  0  0
   67.1208   48.2676   54.2915 C   0  0  0  0  0  0
   66.3562   47.0072   52.3255 C   0  0  0  0  0  0
   66.7933   45.7594   52.8002 C   0  0  0  0  0  0
   62.6327   33.8125   48.9420 C   0  0  2  0  0  0
   66.8517   44.6672   51.9147 C   0  0  0  0  0  0
   66.4744   44.8392   50.5715 C   0  0  0  0  0  0
   66.0458   46.1000   50.1494 C   0  0  0  0  0  0
   65.5986   46.5326   48.8125 C   0  0  0  0  0  0
   64.7396   48.7273   47.8885 C   0  0  1  0  0  0
   63.2368   48.8869   48.0345 C   0  0  0  0  0  0
   62.7731   49.7520   46.8988 C   0  0  0  0  0  0
   63.3972   51.1551   46.9799 C   0  0  0  0  0  0
   65.5211   50.0862   47.7195 C   0  0  0  0  0  0
   65.9927   47.1332   50.9883 C   0  0  0  0  0  0
   63.7517   33.3249   49.9306 C   0  0  0  0  0  0
   65.5127   48.3186   50.2723 C   0  0  0  0  0  0
   63.9568   37.3443   50.9171 C   0  0  0  0  0  0
   65.1967   38.0436   50.3594 C   0  0  0  0  0  0
   65.2159   33.4234   49.4395 C   0  0  0  0  0  0
   65.1501   30.9672   49.1228 C   0  0  0  0  0  0
   63.1491   36.1532   48.6718 C   0  0  0  0  0  0
   63.4715   37.3312   47.7869 C   0  0  0  0  0  0
   63.2488   38.6512   48.2210 C   0  0  0  0  0  0
   60.1908   33.3042   49.4290 N   0  0  0  0  0  0
   62.9649   34.9864   48.1630 N   0  0  0  0  0  0
   63.5060   38.0874   54.5366 N   0  0  0  0  0  0
   65.0872   47.5541   55.4772 N   0  0  0  0  0  0
   65.3007   47.8764   48.9728 N   0  0  0  0  0  0
   64.7189   51.1303   47.3438 N   0  0  0  0  0  0
   61.0844   34.9708   50.5605 N   0  0  0  0  0  0
   65.8461   34.4776   49.5092 O   0  0  0  0  0  0
   66.2746   48.1239   53.1423 O   0  0  0  0  0  0
   66.7258   50.2196   47.9197 O   0  0  0  0  0  0
   62.7944   52.1911   46.7197 O   0  0  0  0  0  0
   65.5038   45.8662   47.7799 O   0  0  0  0  0  0
   65.3298   49.4511   50.7100 O   0  0  0  0  0  0
   67.0079   47.8199   56.6521 O   0  0  0  0  0  0
   65.1333   38.8885   53.1570 O   0  0  0  0  0  0
   62.1023   36.5149   52.5829 S   0  0  0  0  0  0
   64.3954   40.8180   45.0568 Cl  0  0  0  0  0  0
   58.0349   35.4931   52.0407 H   0  0  0  0  0  0
   59.2744   36.7130   51.8798 H   0  0  0  0  0  0
   59.4669   35.3952   53.0363 H   0  0  0  0  0  0
   63.3672   40.7341   47.7124 H   0  0  0  0  0  0
   64.6386   38.0079   44.6633 H   0  0  0  0  0  0
   64.1330   36.1001   46.1408 H   0  0  0  0  0  0
   65.0374   38.7569   55.8426 H   0  0  0  0  0  0
   63.5195   38.3536   56.5949 H   0  0  0  0  0  0
   62.4435   40.3600   55.4729 H   0  0  0  0  0  0
   63.9996   40.7914   54.8152 H   0  0  0  0  0  0
   64.9005   40.9998   57.1756 H   0  0  0  0  0  0
   63.2913   40.6644   57.7875 H   0  0  0  0  0  0
   62.4184   42.6781   56.5627 H   0  0  0  0  0  0
   64.0184   42.9659   55.9343 H   0  0  0  0  0  0
   64.8420   43.2625   58.3444 H   0  0  0  0  0  0
   63.1987   43.0609   58.8807 H   0  0  0  0  0  0
   63.5946   45.4293   58.8174 H   0  0  0  0  0  0
   62.5267   45.0818   57.4920 H   0  0  0  0  0  0
   64.5143   45.0705   55.9188 H   0  0  0  0  0  0
   65.5650   45.4396   57.2576 H   0  0  0  0  0  0
   64.5025   47.6651   57.5252 H   0  0  0  0  0  0
   63.2521   47.2422   56.3890 H   0  0  0  0  0  0
   68.0611   47.7221   54.1900 H   0  0  0  0  0  0
   67.3789   49.3233   54.3794 H   0  0  0  0  0  0
   67.0799   45.6347   53.8341 H   0  0  0  0  0  0
   62.5140   33.0042   48.2153 H   0  0  0  0  0  0
   67.1878   43.7020   52.2660 H   0  0  0  0  0  0
   66.5184   44.0040   49.8896 H   0  0  0  0  0  0
   64.9353   48.2011   46.9520 H   0  0  0  0  0  0
   62.9831   49.3273   48.9990 H   0  0  0  0  0  0
   62.7417   47.9146   47.9932 H   0  0  0  0  0  0
   63.0040   49.3176   45.9250 H   0  0  0  0  0  0
   61.6885   49.8639   46.9440 H   0  0  0  0  0  0
   63.7245   33.9328   50.8323 H   0  0  0  0  0  0
   63.5098   32.3291   50.2885 H   0  0  0  0  0  0
   65.5328   37.6508   49.4014 H   0  0  0  0  0  0
   66.0554   37.9047   51.0163 H   0  0  0  0  0  0
   65.0592   39.1196   50.2575 H   0  0  0  0  0  0
   65.7284   30.2316   48.5617 H   0  0  0  0  0  0
   64.1177   30.9142   48.7721 H   0  0  0  0  0  0
   65.1947   30.6829   50.1770 H   0  0  0  0  0  0
   62.8464   38.8457   49.2021 H   0  0  0  0  0  0
   62.6936   37.4989   54.6325 H   0  0  0  0  0  0
   64.6277   47.6094   54.5813 H   0  0  0  0  0  0
   65.1833   52.0268   47.3200 H   0  0  0  0  0  0
  1  4  2  0  0  0
  1 46  1  0  0  0
  2  4  1  0  0  0
  2 63  1  0  0  0
  2 64  1  0  0  0
  2 65  1  0  0  0
  3 41  1  0  0  0
  3 42  1  0  0  0
  4 52  1  0  0  0
  5  6  1  0  0  0
  5 45  2  0  0  0
  5 66  1  0  0  0
  6  7  2  0  0  0
  6 62  1  0  0  0
  7  8  1  0  0  0
  7 67  1  0  0  0
  8 44  2  0  0  0
  8 68  1  0  0  0
  9 10  2  0  0  0
  9 39  1  0  0  0
  9 43  1  0  0  0
 10 52  1  0  0  0
 10 61  1  0  0  0
 11 12  1  0  0  0
 11 39  2  0  0  0
 11 61  1  0  0  0
 12 48  1  0  0  0
 12 60  2  0  0  0
 13 14  1  0  0  0
 13 48  1  0  0  0
 13 69  1  0  0  0
 13 70  1  0  0  0
 14 16  1  0  0  0
 14 71  1  0  0  0
 14 72  1  0  0  0
 15 26  1  0  0  0
 15 46  2  0  0  0
 15 52  1  0  0  0
 16 17  1  0  0  0
 16 73  1  0  0  0
 16 74  1  0  0  0
 17 18  1  0  0  0
 17 75  1  0  0  0
 17 76  1  0  0  0
 18 19  1  0  0  0
 18 77  1  0  0  0
 18 78  1  0  0  0
 19 20  1  0  0  0
 19 79  1  0  0  0
 19 80  1  0  0  0
 20 21  1  0  0  0
 20 81  1  0  0  0
 20 82  1  0  0  0
 21 49  1  0  0  0
 21 83  1  0  0  0
 21 84  1  0  0  0
 22 23  1  0  0  0
 22 49  1  0  0  0
 22 59  2  0  0  0
 23 54  1  0  0  0
 23 85  1  0  0  0
 23 86  1  0  0  0
 24 25  2  0  0  0
 24 36  1  0  0  0
 24 54  1  0  0  0
 25 27  1  0  0  0
 25 87  1  0  0  0
 26 37  1  0  0  0
 26 47  1  0  0  0
 26 88  1  0  0  0
 27 28  2  0  0  0
 27 89  1  0  0  0
 28 29  1  0  0  0
 28 90  1  0  0  0
 29 30  1  0  0  0
 29 36  2  0  0  0
 30 50  1  0  0  0
 30 57  2  0  0  0
 31 32  1  0  0  0
 31 35  1  0  0  0
 31 50  1  0  0  0
 31 91  1  0  0  0
 32 33  1  0  0  0
 32 92  1  0  0  0
 32 93  1  0  0  0
 33 34  1  0  0  0
 33 94  1  0  0  0
 33 95  1  0  0  0
 34 51  1  0  0  0
 34 56  2  0  0  0
 35 51  1  0  0  0
 35 55  2  0  0  0
 36 38  1  0  0  0
 37 41  1  0  0  0
 37 96  1  0  0  0
 37 97  1  0  0  0
 38 50  1  0  0  0
 38 58  2  0  0  0
 39 40  1  0  0  0
 40 98  1  0  0  0
 40 99  1  0  0  0
 40100  1  0  0  0
 41 53  2  0  0  0
 42101  1  0  0  0
 42102  1  0  0  0
 42103  1  0  0  0
 43 44  1  0  0  0
 43 47  2  0  0  0
 44 45  1  0  0  0
 45104  1  0  0  0
 48105  1  0  0  0
 49106  1  0  0  0
 51107  1  0  0  0
M  END
> <s_m_entry_id>
31

> <s_m_entry_name>
6bn7.1_mol4

> <s_m_source_file>
ligprep_1.maegz

> <i_m_source_file_index>
1

> <i_lp_mmshare_version>
38013

> <i_f3d_flags>
0

> <s_lp_Force_Field>
OPLS3

> <r_lp_Energy>
67.4221447025328

> <b_lp_Chiralities_Consistent>
1

> <s_lp_Variant>
ligand-1

> <s_m_job_name>
glide-dock_SP_ligpprep_ligand

> <s_i_glide_gridfile>
glide-grid_crystal_ligand

> <i_i_glide_lignum>
1

> <i_i_glide_rotatable_bonds>
20

> <r_i_docking_score>
-12.257727029824

> <r_i_glide_ligand_efficiency>
-0.19770527467458

> <r_i_glide_ligand_efficiency_sa>
-0.782496046747591

> <r_i_glide_ligand_efficiency_ln>
-2.39075594850361

> <r_i_glide_gscore>
-12.257727029824

> <r_i_glide_evdw>
-71.630744934082

> <r_i_glide_ecoul>
-14.3311491012573

> <r_i_glide_energy>
-85.9618940353394

> <r_i_glide_einternal>
13.6046800613403

> <r_i_glide_emodel>
-143.034753602544

> <r_i_glide_intrahb_reward>
0

> <i_i_glide_confnum>
37

> <i_i_glide_posenum>
1

> <r_i_glide_eff_state_penalty>
0

> <r_i_glide_lipo>
-2.76552403681378

> <r_i_glide_hbond>
-0.833614003042362

> <r_i_glide_metal>
0

> <r_i_glide_rewards>
-3.05553876929194

> <r_i_glide_erotb>
0.221977836980845

> <r_i_glide_esite>
-0.0938184457640207

> <s_m_subgroup_title>
glide-dock_SP_ligpprep_ligand_pv1

> <s_m_subgroupid>
glide-dock_SP_ligpprep_ligand_pv1

> <b_m_subgroup_collapsed>
0

$$$$
