0000
                    3D
 Structure written by MMmdl.
144151  0  0  1  0            999 V2000
   -9.6388    6.2859  -14.4709 C   0  0  0  0  0  0
  -11.5430    7.4856  -15.3630 C   0  0  0  0  0  0
   -9.3736    7.3494  -13.6147 C   0  0  0  0  0  0
  -11.2735    8.5455  -14.5068 C   0  0  0  0  0  0
   -6.6441    0.4402  -20.8127 C   0  0  0  0  0  0
   -4.0458    1.4543  -20.7914 C   0  0  0  0  0  0
   -0.1068    0.1362  -20.6579 C   0  0  0  0  0  0
    0.1426    0.8082  -18.3700 C   0  0  0  0  0  0
   -4.4938   -1.5960  -15.7688 C   0  0  0  0  0  0
  -10.9743    3.1324  -17.5145 C   0  0  0  0  0  0
  -10.7323    6.3420  -15.3479 C   0  0  0  0  0  0
   -5.7559   -0.0361  -19.8303 C   0  0  0  0  0  0
   -5.6630   -1.4134  -17.6492 C   0  0  0  0  0  0
   -4.9530    1.9030  -21.7617 C   0  0  0  0  0  0
   -4.5712   -0.8444  -16.9575 C   0  0  0  0  0  0
  -10.1931    8.4796  -13.6314 C   0  0  0  0  0  0
   -6.2717    1.3895  -21.7559 C   0  0  0  0  0  0
   -4.3953    0.4987  -19.8101 C   0  0  0  0  0  0
    0.7082    0.5671  -19.6168 C   0  0  0  0  0  0
   -1.4725   -0.0290  -20.4276 C   0  0  0  0  0  0
  -11.0388    5.1714  -16.2613 C   0  0  0  0  0  0
   -6.2095   -2.4439  -16.8566 C   0  0  0  0  0  0
  -12.1675    4.9142  -17.0908 C   0  0  0  0  0  0
   -1.9982    0.2578  -19.1388 C   0  0  0  0  0  0
   -7.3520   -1.8675  -19.1632 C   0  0  0  0  0  0
   -6.2654   -1.1332  -18.8684 C   0  0  0  0  0  0
   -7.3908   -3.3000  -17.1755 C   0  0  0  0  0  0
   -4.4905    2.9431  -22.8082 C   0  0  0  0  0  0
   -9.0868   11.4739  -14.0695 C   0  0  0  0  0  0
   -6.8895   10.7957  -16.2329 C   0  0  0  0  0  0
   -3.9282   11.5834  -17.2485 C   0  0  0  0  0  0
   -3.7576    0.2706  -17.4212 C   0  0  0  0  0  0
   -8.1209   13.8254  -14.4392 C   0  0  0  0  0  0
   -7.3762   13.2358  -16.6442 C   0  0  0  0  0  0
   -7.8645   12.3149  -14.4823 C   0  0  2  0  0  0
   -8.3369   14.1660  -15.9027 C   0  0  2  0  0  0
  -13.4251    5.7389  -17.2949 C   0  0  0  0  0  0
   -6.0570    9.4795  -19.8886 C   0  0  0  0  0  0
   -6.3939    8.0139  -17.9061 C   0  0  0  0  0  0
   -8.2752    9.4845  -18.6654 C   0  0  0  0  0  0
   -9.0973   -3.6540  -18.8603 C   0  0  0  0  0  0
   -9.4924    3.7384  -23.5323 C   0  0  0  0  0  0
   -9.9183    9.6350  -12.6858 C   0  0  0  0  0  0
   -7.3280    1.8547  -22.7588 C   0  0  0  0  0  0
   -2.5190   11.2843  -16.7236 C   0  0  0  0  0  0
   -1.4408   11.2950  -17.8299 C   0  0  0  0  0  0
   -1.3100    9.9580  -18.5859 C   0  0  0  0  0  0
   -0.3088   10.0426  -19.7559 C   0  0  0  0  0  0
    0.2697    8.6878  -20.2033 C   0  0  0  0  0  0
   -0.7646    7.6679  -20.7181 C   0  0  0  0  0  0
   -0.0844    6.3935  -21.2556 C   0  0  0  0  0  0
   -1.0451    5.2590  -21.6555 C   0  0  0  0  0  0
   -2.0377    5.6296  -22.7806 C   0  0  0  0  0  0
   -2.6490    4.4233  -23.5191 C   0  0  0  0  0  0
   -6.2066   10.6204  -17.6186 C   0  0  2  0  0  0
   -6.7340    9.4142  -18.4909 C   0  0  0  0  0  0
   -1.1802    0.6460  -18.1071 N   0  0  0  0  0  0
  -12.0781    3.7725  -17.7596 N   0  0  0  0  0  0
   -5.4662   -2.5124  -15.7541 N   0  0  0  0  0  0
   -3.4013    0.0774  -18.8441 N   0  0  0  0  0  0
   -7.9242   -2.8867  -18.4200 N   0  0  0  0  0  0
   -7.3965   11.9996  -15.8507 N   0  0  0  0  0  0
   -3.2521    3.4417  -22.6096 N   0  0  0  0  0  0
   -8.8547   10.5244  -13.1480 N   0  0  0  0  0  0
   -4.7632   10.5370  -17.3578 N   0  0  0  0  0  0
   -7.8639   -4.2210  -16.5042 O   0  0  0  0  0  0
   -5.2012    3.2742  -23.7575 O   0  0  0  0  0  0
  -10.1877   11.7168  -14.5672 O   0  0  0  0  0  0
   -6.8788    9.8266  -15.4744 O   0  0  0  0  0  0
   -4.2534   12.7376  -17.5369 O   0  0  0  0  0  0
   -9.0028    3.0462  -20.9478 O   0  0  0  0  0  0
   -7.3219    4.5225  -22.1271 O   0  0  0  0  0  0
   -8.0829   15.5270  -16.1569 O   0  0  0  0  0  0
    2.0332    0.7403  -19.8126 F   0  0  0  0  0  0
   -2.2751   -0.4764  -21.4235 F   0  0  0  0  0  0
   -9.8985    3.8411  -16.3948 S   0  0  0  0  0  0
   -8.2569    3.3943  -22.1616 S   0  0  0  0  0  0
   -9.0031    5.4115  -14.4457 H   0  0  0  0  0  0
  -12.3773    7.5547  -16.0328 H   0  0  0  0  0  0
   -8.5343    7.2992  -12.9338 H   0  0  0  0  0  0
  -11.9061    9.4205  -14.5208 H   0  0  0  0  0  0
   -7.6545    0.0696  -20.8404 H   0  0  0  0  0  0
   -3.0511    1.8594  -20.7853 H   0  0  0  0  0  0
    0.3145   -0.0696  -21.6314 H   0  0  0  0  0  0
    0.7597    1.1371  -17.5472 H   0  0  0  0  0  0
   -3.8141   -1.5215  -14.9344 H   0  0  0  0  0  0
  -10.7308    2.1923  -17.9881 H   0  0  0  0  0  0
   -7.9096   -1.7411  -20.0803 H   0  0  0  0  0  0
   -2.9473    0.3912  -16.7039 H   0  0  0  0  0  0
   -4.3270    1.2020  -17.3577 H   0  0  0  0  0  0
   -7.2239   14.3114  -14.0472 H   0  0  0  0  0  0
   -8.9636   14.1005  -13.8007 H   0  0  0  0  0  0
   -6.3697   13.6501  -16.6332 H   0  0  0  0  0  0
   -7.6685   13.0939  -17.6835 H   0  0  0  0  0  0
   -7.0839   12.1137  -13.7475 H   0  0  0  0  0  0
   -9.3636   13.9217  -16.1888 H   0  0  0  0  0  0
  -13.8440    6.0789  -16.3473 H   0  0  0  0  0  0
  -14.2451    5.1967  -17.7557 H   0  0  0  0  0  0
  -13.2391    6.6082  -17.9270 H   0  0  0  0  0  0
   -6.5107    8.7823  -20.5958 H   0  0  0  0  0  0
   -4.9958    9.2261  -19.8305 H   0  0  0  0  0  0
   -6.1019   10.4738  -20.3335 H   0  0  0  0  0  0
   -6.7137    7.2173  -18.5824 H   0  0  0  0  0  0
   -6.8947    7.8198  -16.9578 H   0  0  0  0  0  0
   -5.3223    7.8824  -17.7585 H   0  0  0  0  0  0
   -8.6315    8.7693  -19.4102 H   0  0  0  0  0  0
   -8.6079   10.4736  -18.9728 H   0  0  0  0  0  0
   -8.7973    9.2500  -17.7333 H   0  0  0  0  0  0
   -9.7822   -3.8829  -18.0384 H   0  0  0  0  0  0
   -8.7776   -4.5991  -19.3024 H   0  0  0  0  0  0
   -9.6777   -3.1255  -19.6162 H   0  0  0  0  0  0
  -10.0775    4.6097  -23.2452 H   0  0  0  0  0  0
  -10.1427    2.8751  -23.6456 H   0  0  0  0  0  0
   -8.9523    3.9392  -24.4543 H   0  0  0  0  0  0
   -9.6587    9.2220  -11.7103 H   0  0  0  0  0  0
  -10.8462   10.1901  -12.5253 H   0  0  0  0  0  0
   -7.0408    1.9673  -23.7932 H   0  0  0  0  0  0
   -8.0783    1.0763  -22.8257 H   0  0  0  0  0  0
   -2.2943   12.0676  -15.9991 H   0  0  0  0  0  0
   -2.4965   10.3480  -16.1637 H   0  0  0  0  0  0
   -1.6183   12.1154  -18.5294 H   0  0  0  0  0  0
   -0.4798   11.5155  -17.3628 H   0  0  0  0  0  0
   -0.9905    9.1891  -17.8818 H   0  0  0  0  0  0
   -2.2817    9.6362  -18.9645 H   0  0  0  0  0  0
   -0.7760   10.5472  -20.6018 H   0  0  0  0  0  0
    0.5318   10.6736  -19.4629 H   0  0  0  0  0  0
    1.0037    8.8745  -20.9897 H   0  0  0  0  0  0
    0.8302    8.2474  -19.3759 H   0  0  0  0  0  0
   -1.4540    7.4056  -19.9152 H   0  0  0  0  0  0
   -1.3653    8.1246  -21.5056 H   0  0  0  0  0  0
    0.5415    6.6529  -22.1122 H   0  0  0  0  0  0
    0.5988    6.0077  -20.4975 H   0  0  0  0  0  0
   -0.4408    4.4089  -21.9780 H   0  0  0  0  0  0
   -1.5959    4.9178  -20.7777 H   0  0  0  0  0  0
   -2.8395    6.2420  -22.3645 H   0  0  0  0  0  0
   -1.5373    6.2578  -23.5195 H   0  0  0  0  0  0
   -3.3418    4.7974  -24.2729 H   0  0  0  0  0  0
   -1.8628    3.9041  -24.0702 H   0  0  0  0  0  0
   -6.3825   11.5108  -18.2199 H   0  0  0  0  0  0
   -5.6271   -3.1651  -15.0002 H   0  0  0  0  0  0
   -2.7012    3.1340  -21.8246 H   0  0  0  0  0  0
   -7.9167   10.3525  -12.8170 H   0  0  0  0  0  0
   -4.4462    9.6253  -17.0574 H   0  0  0  0  0  0
   -8.1141   15.6735  -17.1237 H   0  0  0  0  0  0
  1  3  2  0  0  0
  1 11  1  0  0  0
  1 78  1  0  0  0
  2  4  1  0  0  0
  2 11  2  0  0  0
  2 79  1  0  0  0
  3 16  1  0  0  0
  3 80  1  0  0  0
  4 16  2  0  0  0
  4 81  1  0  0  0
  5 12  2  0  0  0
  5 17  1  0  0  0
  5 82  1  0  0  0
  6 14  1  0  0  0
  6 18  2  0  0  0
  6 83  1  0  0  0
  7 19  2  0  0  0
  7 20  1  0  0  0
  7 84  1  0  0  0
  8 19  1  0  0  0
  8 57  2  0  0  0
  8 85  1  0  0  0
  9 15  2  0  0  0
  9 59  1  0  0  0
  9 86  1  0  0  0
 10 58  2  0  0  0
 10 76  1  0  0  0
 10 87  1  0  0  0
 11 21  1  0  0  0
 12 18  1  0  0  0
 12 26  1  0  0  0
 13 15  1  0  0  0
 13 22  2  0  0  0
 13 26  1  0  0  0
 14 17  2  0  0  0
 14 28  1  0  0  0
 15 32  1  0  0  0
 16 43  1  0  0  0
 17 44  1  0  0  0
 18 60  1  0  0  0
 19 74  1  0  0  0
 20 24  2  0  0  0
 20 75  1  0  0  0
 21 23  2  0  0  0
 21 76  1  0  0  0
 22 27  1  0  0  0
 22 59  1  0  0  0
 23 37  1  0  0  0
 23 58  1  0  0  0
 24 57  1  0  0  0
 24 60  1  0  0  0
 25 26  2  0  0  0
 25 61  1  0  0  0
 25 88  1  0  0  0
 27 61  1  0  0  0
 27 66  2  0  0  0
 28 63  1  0  0  0
 28 67  2  0  0  0
 29 35  1  0  0  0
 29 64  1  0  0  0
 29 68  2  0  0  0
 30 55  1  0  0  0
 30 62  1  0  0  0
 30 69  2  0  0  0
 31 45  1  0  0  0
 31 65  1  0  0  0
 31 70  2  0  0  0
 32 60  1  0  0  0
 32 89  1  0  0  0
 32 90  1  0  0  0
 33 35  1  0  0  0
 33 36  1  0  0  0
 33 91  1  0  0  0
 33 92  1  0  0  0
 34 36  1  0  0  0
 34 62  1  0  0  0
 34 93  1  0  0  0
 34 94  1  0  0  0
 35 62  1  0  0  0
 35 95  1  0  0  0
 36 73  1  0  0  0
 36 96  1  0  0  0
 37 97  1  0  0  0
 37 98  1  0  0  0
 37 99  1  0  0  0
 38 56  1  0  0  0
 38100  1  0  0  0
 38101  1  0  0  0
 38102  1  0  0  0
 39 56  1  0  0  0
 39103  1  0  0  0
 39104  1  0  0  0
 39105  1  0  0  0
 40 56  1  0  0  0
 40106  1  0  0  0
 40107  1  0  0  0
 40108  1  0  0  0
 41 61  1  0  0  0
 41109  1  0  0  0
 41110  1  0  0  0
 41111  1  0  0  0
 42 77  1  0  0  0
 42112  1  0  0  0
 42113  1  0  0  0
 42114  1  0  0  0
 43 64  1  0  0  0
 43115  1  0  0  0
 43116  1  0  0  0
 44 77  1  0  0  0
 44117  1  0  0  0
 44118  1  0  0  0
 45 46  1  0  0  0
 45119  1  0  0  0
 45120  1  0  0  0
 46 47  1  0  0  0
 46121  1  0  0  0
 46122  1  0  0  0
 47 48  1  0  0  0
 47123  1  0  0  0
 47124  1  0  0  0
 48 49  1  0  0  0
 48125  1  0  0  0
 48126  1  0  0  0
 49 50  1  0  0  0
 49127  1  0  0  0
 49128  1  0  0  0
 50 51  1  0  0  0
 50129  1  0  0  0
 50130  1  0  0  0
 51 52  1  0  0  0
 51131  1  0  0  0
 51132  1  0  0  0
 52 53  1  0  0  0
 52133  1  0  0  0
 52134  1  0  0  0
 53 54  1  0  0  0
 53135  1  0  0  0
 53136  1  0  0  0
 54 63  1  0  0  0
 54137  1  0  0  0
 54138  1  0  0  0
 55 56  1  0  0  0
 55 65  1  0  0  0
 55139  1  0  0  0
 59140  1  0  0  0
 63141  1  0  0  0
 64142  1  0  0  0
 65143  1  0  0  0
 71 77  2  0  0  0
 72 77  2  0  0  0
 73144  1  0  0  0
M  END
> <s_m_entry_id>
24

> <s_m_entry_name>
0000.1

> <s_m_Source_Path>
/mnt/home/boqing/Schrodinger_Projects/7KHH

> <s_m_Source_File>
0000.sdf

> <i_m_Source_File_Index>
1

> <s_m_job_name>
glide-dock_SP_0000_h

> <s_i_glide_gridfile>
glide-grid_crystal_ligand

> <i_i_glide_lignum>
1

> <i_i_glide_rotatable_bonds>
27

> <r_i_docking_score>
-8.717

> <r_i_glide_ligand_efficiency>
-0.113205185895508

> <r_i_glide_ligand_efficiency_sa>
-0.481611183697141

> <r_i_glide_ligand_efficiency_ln>
-1.63119698900459

> <r_i_glide_gscore>
-8.71679931395412

> <r_i_glide_evdw>
-55.912654876709

> <r_i_glide_ecoul>
-18.2012195587158

> <r_i_glide_energy>
-74.1138744354248

> <r_i_glide_einternal>
20.3723583221436

> <r_i_glide_emodel>
-103.680003083192

> <i_i_glide_confnum>
128

> <i_i_glide_posenum>
38

> <r_i_glide_eff_state_penalty>
0

> <Batch ID>
0

> <Smiles>
Cc1ncsc1-c1ccc(CNC(=O)[C@@H]2C[C@@H](O)CN2C(=O)[C@@H](N[101C](=O)[100CH2]CCCCCCCC[101CH2][100NH]C(=O)c2cc3c(cc2CS(C)(=O)=O)-c2cn(C)c(=O)c4[nH]cc(c24)CN3c2ncc(F)cc2F)C(C)(C)C)cc1

> <Shape>
0.279

> <Color>
0.241

> <Negative vol penalty>
0

> <chiral flag>
1

> <version>
0

> <r_i_glide_lipo>
-1.99033795173912

> <r_i_glide_hbond>
-0.684497210744798

> <r_i_glide_metal>
0

> <r_i_glide_rewards>
-0.588533075178335

> <r_i_glide_erotb>
0.225540657373242

> <r_i_glide_esite>
-0.15315605602229

> <r_i_glide_intrahb_reward>
0

> <s_m_subgroup_title>
glide-dock_SP_0000_h_pv1

> <s_m_subgroupid>
glide-dock_SP_0000_h_pv1

> <b_m_subgroup_collapsed>
0

$$$$
