ligand
                    3D
 Structure written by MMmdl.
144151  0  0  1  0            999 V2000
  -18.1417   19.5794  -25.2140 C   0  0  0  0  0  0
  -19.5999   21.0504  -19.3528 C   0  0  0  0  0  0
  -18.6029   20.2451  -21.4081 C   0  0  0  0  0  0
  -17.4760   19.8238  -20.6813 C   0  0  0  0  0  0
  -17.4150   20.0209  -19.3031 C   0  0  0  0  0  0
  -18.4752   20.6377  -18.6376 C   0  0  0  0  0  0
  -19.6664   20.8552  -20.7286 C   0  0  0  0  0  0
  -18.3964   20.8862  -17.1352 C   0  0  0  0  0  0
  -18.6569   20.0542  -22.9189 C   0  0  0  0  0  0
  -21.0637   20.9284  -23.6496 C   0  0  0  0  0  0
  -17.4404   19.6127  -15.2696 C   0  0  0  0  0  0
  -17.5626   18.3544  -14.3754 C   0  0  2  0  0  0
  -18.7485   18.4489  -13.3951 C   0  0  0  0  0  0
  -19.6796   20.3518  -23.8664 C   0  0  0  0  0  0
  -18.0764   18.6023  -12.0388 C   0  0  2  0  0  0
  -16.8102   17.7678  -12.1863 C   0  0  0  0  0  0
  -15.0811   17.9261  -14.0175 C   0  0  0  0  0  0
  -13.9160   17.5805  -13.0400 C   0  0  2  0  0  0
  -13.1037   18.8201  -12.4684 C   0  0  0  0  0  0
  -13.9995   19.6622  -11.5231 C   0  0  0  0  0  0
  -11.8951   18.3364  -11.6274 C   0  0  0  0  0  0
  -12.5541   19.7793  -13.5530 C   0  0  0  0  0  0
  -12.2758   16.2839  -14.5468 C   0  0  0  0  0  0
  -11.6310   14.9024  -14.7139 C   0  0  0  0  0  0
  -10.1651   14.9295  -15.2280 C   0  0  0  0  0  0
   -9.3455   13.6832  -14.8405 C   0  0  0  0  0  0
   -9.9019   12.3456  -15.3656 C   0  0  0  0  0  0
   -9.3345   11.1254  -14.6181 C   0  0  0  0  0  0
   -9.9322    9.7929  -15.1050 C   0  0  0  0  0  0
   -9.3765    8.5798  -14.3373 C   0  0  0  0  0  0
   -9.8510    7.2285  -14.9064 C   0  0  0  0  0  0
   -9.1066    6.0278  -14.2741 C   0  0  0  0  0  0
   -9.0575    4.7205  -15.1089 C   0  0  0  0  0  0
   -7.7665    5.5260  -17.0608 C   0  0  0  0  0  0
   -7.6163    5.5428  -18.6022 C   0  0  0  0  0  0
   -6.6709    6.4103  -19.1529 C   0  0  0  0  0  0
   -6.4445    6.5132  -20.5417 C   0  0  0  0  0  0
   -7.2320    5.6629  -21.4299 C   0  0  0  0  0  0
   -8.1855    4.7975  -20.8548 C   0  0  0  0  0  0
   -8.3931    4.7197  -19.4793 C   0  0  0  0  0  0
   -9.4690    3.7319  -18.9757 C   0  0  0  0  0  0
   -7.9476    1.3546  -19.9219 C   0  0  0  0  0  0
   -7.1224    5.6981  -22.9765 C   0  0  0  0  0  0
   -8.0934    5.1961  -23.7536 C   0  0  0  0  0  0
   -7.1081    5.6740  -25.9464 C   0  0  0  0  0  0
   -6.0333    6.2039  -25.0580 C   0  0  0  0  0  0
   -6.0191    6.2165  -23.6479 C   0  0  0  0  0  0
   -4.7874    6.7588  -23.2170 C   0  0  0  0  0  0
   -4.1266    7.0956  -24.4144 C   0  0  0  0  0  0
   -4.3572    6.9023  -21.8350 C   0  0  0  0  0  0
   -5.1038    8.5996  -20.2138 C   0  0  0  0  0  0
   -6.0846    9.3313  -19.4904 C   0  0  0  0  0  0
   -5.6898   10.4412  -18.7414 C   0  0  0  0  0  0
   -4.3494   10.8093  -18.7288 C   0  0  0  0  0  0
   -3.4371   10.0678  -19.4726 C   0  0  0  0  0  0
   -9.2785    4.5841  -25.8790 C   0  0  0  0  0  0
   -3.9393   11.8775  -18.0086 F   0  0  0  0  0  0
   -7.3920    8.9800  -19.5361 F   0  0  0  0  0  0
  -18.2889   19.6781  -16.3124 N   0  0  0  0  0  0
  -16.3544   18.0777  -13.5489 N   0  0  0  0  0  0
  -13.1200   16.4270  -13.5065 N   0  0  0  0  0  0
   -8.7951    4.8252  -16.5554 N   0  0  0  0  0  0
  -19.3378   20.0730  -25.1176 N   0  0  0  0  0  0
   -8.1495    5.1578  -25.1357 N   0  0  0  0  0  0
   -4.8878    6.7533  -25.4568 N   0  0  0  0  0  0
   -5.4652    7.4590  -21.0287 N   0  0  0  0  0  0
   -3.7883    8.9927  -20.2242 N   0  0  0  0  0  0
  -16.6281   20.4947  -14.9809 O   0  0  0  0  0  0
  -14.8067   18.0711  -15.2113 O   0  0  0  0  0  0
  -12.0151   17.1900  -15.3360 O   0  0  0  0  0  0
   -6.9708    6.1528  -16.3533 O   0  0  0  0  0  0
   -7.8258    2.2093  -17.3628 O   0  0  0  0  0  0
  -10.0092    1.1955  -18.1575 O   0  0  0  0  0  0
   -7.1275    5.6543  -27.1791 O   0  0  0  0  0  0
  -18.8781   18.1748  -10.9579 O   0  0  0  0  0  0
  -17.2780   19.3607  -23.7598 S   0  0  0  0  0  0
   -8.8325    2.0329  -18.4126 S   0  0  0  0  0  0
  -17.7639   17.5195  -15.0469 H   0  0  0  0  0  0
  -17.7950   19.6472  -11.8824 H   0  0  0  0  0  0
  -14.3689   17.1153  -12.1676 H   0  0  0  0  0  0
   -4.6248    6.8829  -26.4250 H   0  0  0  0  0  0
  -17.7037   19.3017  -26.1617 H   0  0  0  0  0  0
  -20.4204   21.5309  -18.8394 H   0  0  0  0  0  0
  -16.6472   19.3496  -21.1846 H   0  0  0  0  0  0
  -16.5439   19.6991  -18.7531 H   0  0  0  0  0  0
  -20.5328   21.1880  -21.2628 H   0  0  0  0  0  0
  -19.2904   21.4181  -16.8052 H   0  0  0  0  0  0
  -17.5784   21.5910  -16.9751 H   0  0  0  0  0  0
  -21.6305   20.3542  -22.9178 H   0  0  0  0  0  0
  -21.6642   20.8978  -24.5577 H   0  0  0  0  0  0
  -21.0298   21.9683  -23.3254 H   0  0  0  0  0  0
  -19.3088   17.5131  -13.4433 H   0  0  0  0  0  0
  -19.4345   19.2668  -13.6206 H   0  0  0  0  0  0
  -17.0390   16.7046  -12.1038 H   0  0  0  0  0  0
  -16.1029   18.0161  -11.3967 H   0  0  0  0  0  0
  -13.4645   20.5220  -11.1181 H   0  0  0  0  0  0
  -14.3444   19.0855  -10.6630 H   0  0  0  0  0  0
  -14.8789   20.0590  -12.0306 H   0  0  0  0  0  0
  -11.3703   19.1721  -11.1617 H   0  0  0  0  0  0
  -11.1616   17.7980  -12.2274 H   0  0  0  0  0  0
  -12.2144   17.6744  -10.8231 H   0  0  0  0  0  0
  -12.1003   20.6630  -13.1039 H   0  0  0  0  0  0
  -13.3374   20.1411  -14.2179 H   0  0  0  0  0  0
  -11.7761   19.3193  -14.1578 H   0  0  0  0  0  0
  -11.6786   14.3820  -13.7576 H   0  0  0  0  0  0
  -12.2585   14.3203  -15.3872 H   0  0  0  0  0  0
  -10.1446   15.0652  -16.3103 H   0  0  0  0  0  0
   -9.6478   15.7986  -14.8177 H   0  0  0  0  0  0
   -8.3194   13.8024  -15.1866 H   0  0  0  0  0  0
   -9.2782   13.6445  -13.7576 H   0  0  0  0  0  0
  -10.9897   12.3252  -15.2796 H   0  0  0  0  0  0
   -9.6782   12.2612  -16.4293 H   0  0  0  0  0  0
   -8.2491   11.1006  -14.7295 H   0  0  0  0  0  0
   -9.5273   11.2324  -13.5504 H   0  0  0  0  0  0
  -11.0198    9.8169  -15.0049 H   0  0  0  0  0  0
   -9.7257    9.6792  -16.1714 H   0  0  0  0  0  0
   -8.2862    8.6224  -14.3769 H   0  0  0  0  0  0
   -9.6462    8.6490  -13.2823 H   0  0  0  0  0  0
  -10.9285    7.1154  -14.7699 H   0  0  0  0  0  0
   -9.6933    7.2487  -15.9837 H   0  0  0  0  0  0
   -8.0789    6.3104  -14.0632 H   0  0  0  0  0  0
   -9.5348    5.8156  -13.2919 H   0  0  0  0  0  0
   -8.3355    4.0304  -14.6707 H   0  0  0  0  0  0
  -10.0231    4.2217  -15.0151 H   0  0  0  0  0  0
   -6.0868    7.0234  -18.4845 H   0  0  0  0  0  0
   -8.7783    4.1655  -21.4927 H   0  0  0  0  0  0
  -10.2328    4.1242  -18.3102 H   0  0  0  0  0  0
  -10.0832    3.4652  -19.8365 H   0  0  0  0  0  0
   -7.7167    0.3049  -19.7470 H   0  0  0  0  0  0
   -7.0318    1.9252  -20.0763 H   0  0  0  0  0  0
   -8.5930    1.4474  -20.7915 H   0  0  0  0  0  0
   -8.9948    4.7632  -23.3533 H   0  0  0  0  0  0
   -3.1581    7.5434  -24.5815 H   0  0  0  0  0  0
   -3.4130    7.4438  -21.8473 H   0  0  0  0  0  0
   -4.1000    5.9240  -21.4274 H   0  0  0  0  0  0
   -6.4183   11.0099  -18.1836 H   0  0  0  0  0  0
   -2.3920   10.3365  -19.4804 H   0  0  0  0  0  0
   -9.2915    4.8223  -26.9446 H   0  0  0  0  0  0
  -10.2191    4.9462  -25.4626 H   0  0  0  0  0  0
   -9.2766    3.5001  -25.7803 H   0  0  0  0  0  0
  -18.9345   18.9223  -16.4989 H   0  0  0  0  0  0
  -13.2721   15.6020  -12.9493 H   0  0  0  0  0  0
   -9.4058    4.3217  -17.1745 H   0  0  0  0  0  0
  -18.2846   18.0739  -10.1884 H   0  0  0  0  0  0
  1 63  2  0  0  0
  1 76  1  0  0  0
  1 82  1  0  0  0
  2  6  1  0  0  0
  2  7  2  0  0  0
  2 83  1  0  0  0
  3  4  2  0  0  0
  3  7  1  0  0  0
  3  9  1  0  0  0
  4  5  1  0  0  0
  4 84  1  0  0  0
  5  6  2  0  0  0
  5 85  1  0  0  0
  6  8  1  0  0  0
  7 86  1  0  0  0
  8 59  1  0  0  0
  8 87  1  0  0  0
  8 88  1  0  0  0
  9 14  2  0  0  0
  9 76  1  0  0  0
 10 14  1  0  0  0
 10 89  1  0  0  0
 10 90  1  0  0  0
 10 91  1  0  0  0
 11 12  1  0  0  0
 11 59  1  0  0  0
 11 68  2  0  0  0
 12 13  1  0  0  0
 12 60  1  0  0  0
 12 78  1  0  0  0
 13 15  1  0  0  0
 13 92  1  0  0  0
 13 93  1  0  0  0
 14 63  1  0  0  0
 15 16  1  0  0  0
 15 75  1  0  0  0
 15 79  1  0  0  0
 16 60  1  0  0  0
 16 94  1  0  0  0
 16 95  1  0  0  0
 17 18  1  0  0  0
 17 60  1  0  0  0
 17 69  2  0  0  0
 18 19  1  0  0  0
 18 61  1  0  0  0
 18 80  1  0  0  0
 19 20  1  0  0  0
 19 21  1  0  0  0
 19 22  1  0  0  0
 20 96  1  0  0  0
 20 97  1  0  0  0
 20 98  1  0  0  0
 21 99  1  0  0  0
 21100  1  0  0  0
 21101  1  0  0  0
 22102  1  0  0  0
 22103  1  0  0  0
 22104  1  0  0  0
 23 24  1  0  0  0
 23 61  1  0  0  0
 23 70  2  0  0  0
 24 25  1  0  0  0
 24105  1  0  0  0
 24106  1  0  0  0
 25 26  1  0  0  0
 25107  1  0  0  0
 25108  1  0  0  0
 26 27  1  0  0  0
 26109  1  0  0  0
 26110  1  0  0  0
 27 28  1  0  0  0
 27111  1  0  0  0
 27112  1  0  0  0
 28 29  1  0  0  0
 28113  1  0  0  0
 28114  1  0  0  0
 29 30  1  0  0  0
 29115  1  0  0  0
 29116  1  0  0  0
 30 31  1  0  0  0
 30117  1  0  0  0
 30118  1  0  0  0
 31 32  1  0  0  0
 31119  1  0  0  0
 31120  1  0  0  0
 32 33  1  0  0  0
 32121  1  0  0  0
 32122  1  0  0  0
 33 62  1  0  0  0
 33123  1  0  0  0
 33124  1  0  0  0
 34 35  1  0  0  0
 34 62  1  0  0  0
 34 71  2  0  0  0
 35 36  1  0  0  0
 35 40  2  0  0  0
 36 37  2  0  0  0
 36125  1  0  0  0
 37 38  1  0  0  0
 37 66  1  0  0  0
 38 39  2  0  0  0
 38 43  1  0  0  0
 39 40  1  0  0  0
 39126  1  0  0  0
 40 41  1  0  0  0
 41 77  1  0  0  0
 41127  1  0  0  0
 41128  1  0  0  0
 42 77  1  0  0  0
 42129  1  0  0  0
 42130  1  0  0  0
 42131  1  0  0  0
 43 44  2  0  0  0
 43 47  1  0  0  0
 44 64  1  0  0  0
 44132  1  0  0  0
 45 46  1  0  0  0
 45 64  1  0  0  0
 45 74  2  0  0  0
 46 47  2  0  0  0
 46 65  1  0  0  0
 47 48  1  0  0  0
 48 49  2  0  0  0
 48 50  1  0  0  0
 49 65  1  0  0  0
 49133  1  0  0  0
 50 66  1  0  0  0
 50134  1  0  0  0
 50135  1  0  0  0
 51 52  1  0  0  0
 51 66  1  0  0  0
 51 67  2  0  0  0
 52 53  2  0  0  0
 52 58  1  0  0  0
 53 54  1  0  0  0
 53136  1  0  0  0
 54 55  2  0  0  0
 54 57  1  0  0  0
 55 67  1  0  0  0
 55137  1  0  0  0
 56 64  1  0  0  0
 56138  1  0  0  0
 56139  1  0  0  0
 56140  1  0  0  0
 59141  1  0  0  0
 61142  1  0  0  0
 62143  1  0  0  0
 65 81  1  0  0  0
 72 77  2  0  0  0
 73 77  2  0  0  0
 75144  1  0  0  0
M  END
> <s_m_entry_id>
30

> <s_m_entry_name>
7khh.1_mol3

> <s_m_source_file>
ligprep_1.maegz

> <i_m_source_file_index>
1

> <i_lp_mmshare_version>
38013

> <i_f3d_flags>
0

> <s_lp_Force_Field>
OPLS3

> <r_lp_Energy>
110.244274235415

> <b_lp_Chiralities_Consistent>
1

> <s_lp_Variant>
ligand-1

> <s_m_job_name>
glide-dock_SP_ligprep_ligand

> <s_i_glide_gridfile>
glide-grid_crystal_ligand

> <i_i_glide_lignum>
1

> <i_i_glide_rotatable_bonds>
27

> <r_i_docking_score>
-8.16606942156872

> <r_i_glide_ligand_efficiency>
-0.106052849630763

> <r_i_glide_ligand_efficiency_sa>
-0.451182850335774

> <r_i_glide_ligand_efficiency_ln>
-1.52813749321285

> <r_i_glide_gscore>
-8.16606942156872

> <r_i_glide_evdw>
-63.8394775390625

> <r_i_glide_ecoul>
-17.9860210418701

> <r_i_glide_energy>
-81.8254985809326

> <r_i_glide_einternal>
12.2604389190674

> <r_i_glide_emodel>
-121.074703565899

> <i_i_glide_confnum>
54

> <i_i_glide_posenum>
328

> <r_i_glide_eff_state_penalty>
0

> <r_i_glide_lipo>
-1.85228982736395

> <r_i_glide_hbond>
-0.416825283753017

> <r_i_glide_metal>
0

> <r_i_glide_rewards>
-0.0949007213217018

> <r_i_glide_erotb>
0.225540657373242

> <r_i_glide_esite>
-0.137717213269644

> <r_i_glide_intrahb_reward>
0

> <s_m_subgroup_title>
glide-dock_SP_ligprep_ligand_pv1

> <s_m_subgroupid>
glide-dock_SP_ligprep_ligand_pv1

> <b_m_subgroup_collapsed>
0

$$$$
