0000
                    3D
 Structure written by MMmdl.
126132  0  0  1  0            999 V2000
  -27.9227   10.3992  -23.3291 C   0  0  0  0  0  0
  -26.6611   10.5834  -22.7962 C   0  0  0  0  0  0
  -29.0348   10.3455  -22.4976 C   0  0  0  0  0  0
  -28.7472   22.0582  -23.6907 C   0  0  0  0  0  0
  -28.1092   20.9949  -24.3296 C   0  0  0  0  0  0
  -26.4930   10.7199  -21.4241 C   0  0  0  0  0  0
  -30.5372   20.5731  -23.0163 C   0  0  0  0  0  0
  -31.4294   10.4399  -20.7558 C   0  0  0  0  0  0
  -32.1986   24.3797  -21.0811 C   0  0  0  0  0  0
  -29.9684   21.8580  -23.0273 C   0  0  0  0  0  0
  -28.9017   10.4750  -21.0946 C   0  0  0  0  0  0
  -28.6787   19.7217  -24.3174 C   0  0  0  0  0  0
  -32.5358   10.4529  -19.9102 C   0  0  0  0  0  0
  -27.5872   10.6636  -20.5658 C   0  0  0  0  0  0
  -29.8947   19.5068  -23.6595 C   0  0  0  0  0  0
  -30.1451   10.4279  -20.2075 C   0  0  0  0  0  0
  -30.6723   23.0096  -22.3286 C   0  0  0  0  0  0
  -30.3348   24.3948  -22.2196 C   0  0  0  0  0  0
  -32.2706   10.4290  -18.5084 C   0  0  0  0  0  0
  -29.0125   18.8384  -27.2499 C   0  0  0  0  0  0
  -29.1885   13.4628  -29.5392 C   0  0  0  0  0  0
  -30.0183   16.5286  -29.0515 C   0  0  0  0  0  0
  -27.7893   11.2275  -29.5765 C   0  0  0  0  0  0
  -26.8222   12.3740  -29.3680 C   0  0  0  0  0  0
  -29.0950   20.0879  -29.4714 C   0  0  0  0  0  0
  -34.1538    9.7858  -21.7230 C   0  0  0  0  0  0
  -35.0855   10.7782  -19.7400 C   0  0  0  0  0  0
  -29.5736   18.1613  -30.9087 C   0  0  0  0  0  0
  -35.0138   10.6133  -22.6889 C   0  0  0  0  0  0
  -35.9967   11.6837  -20.6064 C   0  0  0  0  0  0
  -28.7853   18.7585  -28.7770 C   0  0  2  0  0  0
  -29.3484   19.6759  -30.9189 C   0  0  2  0  0  0
  -28.0845   12.5880  -30.1779 C   0  0  0  0  0  0
  -29.1490   25.1506  -22.7836 C   0  0  0  0  0  0
  -32.4091   14.4524  -28.3496 C   0  0  0  0  0  0
  -33.0334   16.4469  -29.7272 C   0  0  0  0  0  0
  -32.7165   14.2112  -30.8065 C   0  0  0  0  0  0
  -27.9754   18.5655  -25.0286 C   0  0  0  0  0  0
  -37.3060   11.7738  -22.8489 C   0  0  0  0  0  0
  -37.0234   13.2834  -22.9263 C   0  0  0  0  0  0
  -31.8657   18.1035  -23.7521 C   0  0  0  0  0  0
  -32.1928   16.6494  -24.1151 C   0  0  0  0  0  0
  -35.4564   14.9127  -23.7095 C   0  0  0  0  0  0
  -33.9756   15.0562  -24.0916 C   0  0  0  0  0  0
  -30.6652   15.5073  -30.0315 C   0  0  2  0  0  0
  -32.1708   15.1562  -29.7113 C   0  0  0  0  0  0
  -31.2113   25.0992  -21.5175 N   0  0  0  0  0  0
  -29.9490   10.3994  -18.8590 N   0  0  0  0  0  0
  -31.0016   10.4037  -18.0186 N   0  0  0  0  0  0
  -33.8331   10.5064  -20.4744 N   0  0  0  0  0  0
  -29.6176   17.7596  -29.4949 N   0  0  0  0  0  0
  -33.3000   10.3979  -17.5700 N   0  0  0  0  0  0
  -27.9115   18.6561  -26.4957 N   0  0  0  0  0  0
  -29.7503   14.3899  -30.3373 N   0  0  0  0  0  0
  -36.3111   10.9883  -21.9508 N   0  3  0  0  0  0
  -30.1484   19.0404  -26.8204 O   0  0  0  0  0  0
  -29.5112   13.3022  -28.3592 O   0  0  0  0  0  0
  -29.9112   16.1678  -27.8824 O   0  0  0  0  0  0
  -27.3697   10.7987  -19.2178 O   0  0  0  0  0  0
  -28.2982   20.0281  -31.8002 O   0  0  0  0  0  0
  -30.4490   18.2409  -23.6499 O   0  0  0  0  0  0
  -35.7832   13.5316  -23.5792 O   0  0  0  0  0  0
  -33.5872   16.4177  -23.9455 O   0  0  0  0  0  0
  -27.9235   12.7349  -31.4961 F   0  0  0  0  0  0
  -32.1784   22.7177  -21.4682 S   0  0  0  0  0  0
  -28.0422   10.2944  -24.3971 H   0  0  0  0  0  0
  -25.8048   10.6245  -23.4512 H   0  0  0  0  0  0
  -30.0017   10.1984  -22.9413 H   0  0  0  0  0  0
  -28.2919   23.0295  -23.7118 H   0  0  0  0  0  0
  -27.1699   21.1609  -24.8400 H   0  0  0  0  0  0
  -25.5066   10.8674  -21.0209 H   0  0  0  0  0  0
  -31.4722   20.4018  -22.5092 H   0  0  0  0  0  0
  -31.5685   10.4790  -21.8171 H   0  0  0  0  0  0
  -33.0065   24.7961  -20.4962 H   0  0  0  0  0  0
  -27.5117   10.4205  -30.2525 H   0  0  0  0  0  0
  -28.3659   10.8695  -28.7216 H   0  0  0  0  0  0
  -26.7322   12.8077  -28.3699 H   0  0  0  0  0  0
  -25.8693   12.3846  -29.9035 H   0  0  0  0  0  0
  -28.2745   20.7967  -29.3465 H   0  0  0  0  0  0
  -29.9978   20.5229  -29.0397 H   0  0  0  0  0  0
  -33.2681    9.4382  -22.2518 H   0  0  0  0  0  0
  -34.6784    8.8664  -21.4532 H   0  0  0  0  0  0
  -34.9189   11.4205  -18.8780 H   0  0  0  0  0  0
  -35.5776    9.8592  -19.4147 H   0  0  0  0  0  0
  -28.7423   17.6495  -31.3936 H   0  0  0  0  0  0
  -30.4783   17.9220  -31.4643 H   0  0  0  0  0  0
  -34.5077   11.5270  -23.0002 H   0  0  0  0  0  0
  -35.2942   10.0356  -23.5708 H   0  0  0  0  0  0
  -35.4671   12.6088  -20.8435 H   0  0  0  0  0  0
  -36.9339   11.9595  -20.1252 H   0  0  0  0  0  0
  -27.7328   18.5160  -28.9326 H   0  0  0  0  0  0
  -30.2625   20.1616  -31.2666 H   0  0  0  0  0  0
  -29.1907   26.2187  -22.5637 H   0  0  0  0  0  0
  -29.1059   25.0725  -23.8707 H   0  0  0  0  0  0
  -28.2035   24.7903  -22.3746 H   0  0  0  0  0  0
  -33.4739   14.3992  -28.1350 H   0  0  0  0  0  0
  -31.9752   14.9812  -27.5032 H   0  0  0  0  0  0
  -32.0287   13.4321  -28.3336 H   0  0  0  0  0  0
  -34.0952   16.2296  -29.6214 H   0  0  0  0  0  0
  -32.9099   17.0047  -30.6539 H   0  0  0  0  0  0
  -32.7691   17.1214  -28.9104 H   0  0  0  0  0  0
  -32.6152   14.6441  -31.8037 H   0  0  0  0  0  0
  -33.7758   13.9996  -30.6530 H   0  0  0  0  0  0
  -32.1981   13.2508  -30.8189 H   0  0  0  0  0  0
  -28.3977   17.5981  -24.7525 H   0  0  0  0  0  0
  -26.9513   18.5271  -24.6522 H   0  0  0  0  0  0
  -38.2891   11.5995  -22.4132 H   0  0  0  0  0  0
  -37.2989   11.2931  -23.8313 H   0  0  0  0  0  0
  -37.0336   13.7380  -21.9347 H   0  0  0  0  0  0
  -37.8556   13.7331  -23.4532 H   0  0  0  0  0  0
  -32.3248   18.3497  -22.7922 H   0  0  0  0  0  0
  -32.2839   18.7764  -24.5017 H   0  0  0  0  0  0
  -31.8777   16.4368  -25.1376 H   0  0  0  0  0  0
  -31.6237   15.9823  -23.4606 H   0  0  0  0  0  0
  -35.6250   15.4328  -22.7640 H   0  0  0  0  0  0
  -36.0869   15.3934  -24.4598 H   0  0  0  0  0  0
  -33.8056   14.7089  -25.1138 H   0  0  0  0  0  0
  -33.3737   14.4265  -23.4321 H   0  0  0  0  0  0
  -30.7219   15.9633  -31.0137 H   0  0  0  0  0  0
  -33.0745   10.3591  -16.5871 H   0  0  0  0  0  0
  -34.2561   10.3799  -17.8825 H   0  0  0  0  0  0
  -27.0216   18.4844  -26.9360 H   0  0  0  0  0  0
  -29.4143   14.3922  -31.2891 H   0  0  0  0  0  0
  -36.7614   10.1089  -21.7323 H   0  0  0  0  0  0
  -26.4944   11.1315  -19.0007 H   0  0  0  0  0  0
  -28.3684   20.9732  -31.9890 H   0  0  0  0  0  0
  1  2  1  0  0  0
  1  3  2  0  0  0
  1 66  1  0  0  0
  2  6  2  0  0  0
  2 67  1  0  0  0
  3 11  1  0  0  0
  3 68  1  0  0  0
  4  5  2  0  0  0
  4 10  1  0  0  0
  4 69  1  0  0  0
  5 12  1  0  0  0
  5 70  1  0  0  0
  6 14  1  0  0  0
  6 71  1  0  0  0
  7 10  2  0  0  0
  7 15  1  0  0  0
  7 72  1  0  0  0
  8 13  1  0  0  0
  8 16  2  0  0  0
  8 73  1  0  0  0
  9 47  2  0  0  0
  9 65  1  0  0  0
  9 74  1  0  0  0
 10 17  1  0  0  0
 11 14  2  0  0  0
 11 16  1  0  0  0
 12 15  2  0  0  0
 12 38  1  0  0  0
 13 19  2  0  0  0
 13 50  1  0  0  0
 14 59  1  0  0  0
 15 61  1  0  0  0
 16 48  1  0  0  0
 17 18  2  0  0  0
 17 65  1  0  0  0
 18 34  1  0  0  0
 18 47  1  0  0  0
 19 49  1  0  0  0
 19 52  1  0  0  0
 20 31  1  0  0  0
 20 53  1  0  0  0
 20 56  2  0  0  0
 21 33  1  0  0  0
 21 54  1  0  0  0
 21 57  2  0  0  0
 22 45  1  0  0  0
 22 51  1  0  0  0
 22 58  2  0  0  0
 23 24  1  0  0  0
 23 33  1  0  0  0
 23 75  1  0  0  0
 23 76  1  0  0  0
 24 33  1  0  0  0
 24 77  1  0  0  0
 24 78  1  0  0  0
 25 31  1  0  0  0
 25 32  1  0  0  0
 25 79  1  0  0  0
 25 80  1  0  0  0
 26 29  1  0  0  0
 26 50  1  0  0  0
 26 81  1  0  0  0
 26 82  1  0  0  0
 27 30  1  0  0  0
 27 50  1  0  0  0
 27 83  1  0  0  0
 27 84  1  0  0  0
 28 32  1  0  0  0
 28 51  1  0  0  0
 28 85  1  0  0  0
 28 86  1  0  0  0
 29 55  1  0  0  0
 29 87  1  0  0  0
 29 88  1  0  0  0
 30 55  1  0  0  0
 30 89  1  0  0  0
 30 90  1  0  0  0
 31 51  1  0  0  0
 31 91  1  0  0  0
 32 60  1  0  0  0
 32 92  1  0  0  0
 33 64  1  0  0  0
 34 93  1  0  0  0
 34 94  1  0  0  0
 34 95  1  0  0  0
 35 46  1  0  0  0
 35 96  1  0  0  0
 35 97  1  0  0  0
 35 98  1  0  0  0
 36 46  1  0  0  0
 36 99  1  0  0  0
 36100  1  0  0  0
 36101  1  0  0  0
 37 46  1  0  0  0
 37102  1  0  0  0
 37103  1  0  0  0
 37104  1  0  0  0
 38 53  1  0  0  0
 38105  1  0  0  0
 38106  1  0  0  0
 39 40  1  0  0  0
 39 55  1  0  0  0
 39107  1  0  0  0
 39108  1  0  0  0
 40 62  1  0  0  0
 40109  1  0  0  0
 40110  1  0  0  0
 41 42  1  0  0  0
 41 61  1  0  0  0
 41111  1  0  0  0
 41112  1  0  0  0
 42 63  1  0  0  0
 42113  1  0  0  0
 42114  1  0  0  0
 43 44  1  0  0  0
 43 62  1  0  0  0
 43115  1  0  0  0
 43116  1  0  0  0
 44 63  1  0  0  0
 44117  1  0  0  0
 44118  1  0  0  0
 45 46  1  0  0  0
 45 54  1  0  0  0
 45119  1  0  0  0
 48 49  2  0  0  0
 52120  1  0  0  0
 52121  1  0  0  0
 53122  1  0  0  0
 54123  1  0  0  0
 55124  1  0  0  0
 59125  1  0  0  0
 60126  1  0  0  0
M  CHG  1  55   1
M  END
> <s_m_entry_id>
22

> <s_m_entry_name>
0000.1

> <s_m_Source_Path>
/mnt/home/boqing/Schrodinger_Projects/6HAY

> <s_m_Source_File>
0000.sdf

> <i_m_Source_File_Index>
1

> <s_m_job_name>
glide-dock_SP_0000_h

> <s_i_glide_gridfile>
glide-grid_cyrstal_ligand

> <i_i_glide_lignum>
1

> <i_i_glide_rotatable_bonds>
25

> <r_i_docking_score>
-9.10021206166097

> <r_i_glide_ligand_efficiency>
-0.140003262487092

> <r_i_glide_ligand_efficiency_sa>
-0.562914722985081

> <r_i_glide_ligand_efficiency_ln>
-1.75870331828574

> <r_i_glide_gscore>
-9.10021206166097

> <r_i_glide_evdw>
-53.7946357727051

> <r_i_glide_ecoul>
-11.3934144973755

> <r_i_glide_energy>
-65.1880502700806

> <r_i_glide_einternal>
24.4180908203125

> <r_i_glide_emodel>
-98.5611861381758

> <r_i_glide_intrahb_reward>
0

> <i_i_glide_confnum>
243

> <i_i_glide_posenum>
329

> <r_i_glide_eff_state_penalty>
0

> <Batch ID>
0

> <Smiles>
Cc1ncsc1-c1ccc(CNC(=O)[C@@H]2C[C@@H](O)CN2C(=O)[C@@H](NC(=O)C2(F)CC2)C(C)(C)C)c([101O][100CH2]COCCOC[101CH2][100N]2CCN(c3cc(-c4ccccc4O)nnc3N)CC2)c1

> <Shape>
0.308

> <Color>
0.163

> <Negative vol penalty>
0

> <chiral flag>
1

> <version>
0

> <r_i_glide_lipo>
-3.59863923426755

> <r_i_glide_hbond>
-0.403876785966067

> <r_i_glide_metal>
0

> <r_i_glide_rewards>
-1.02704151399965

> <r_i_glide_erotb>
0.330052240231938

> <r_i_glide_esite>
-0.00196280441806352

> <s_m_subgroup_title>
glide-dock_SP_0000_h_pv1

> <s_m_subgroupid>
glide-dock_SP_0000_h_pv1

> <b_m_subgroup_collapsed>
0

$$$$
