0000
                    3D
 Structure written by MMmdl.
125132  0  0  1  0            999 V2000
  -18.0503  -18.0351  -17.7162 C   0  0  0  0  0  0
  -17.6993  -16.7166  -17.4582 C   0  0  0  0  0  0
  -19.3912  -18.4038  -17.8040 C   0  0  0  0  0  0
  -30.0124  -14.2736  -23.3331 C   0  0  0  0  0  0
  -29.1265  -14.8308  -22.4186 C   0  0  0  0  0  0
  -27.5537  -20.5475  -23.5068 C   0  0  0  0  0  0
  -25.5838  -21.3370  -24.6700 C   0  0  0  0  0  0
  -27.3420  -21.4944  -22.5080 C   0  0  0  0  0  0
  -25.3710  -22.2808  -23.6707 C   0  0  0  0  0  0
  -18.6855  -15.7536  -17.2894 C   0  0  0  0  0  0
  -29.2323  -15.8148  -25.0223 C   0  0  0  0  0  0
  -22.2635  -19.1268  -18.2192 C   0  0  0  0  0  0
  -32.3896  -13.6765  -27.5729 C   0  0  0  0  0  0
  -30.0769  -14.7570  -24.6424 C   0  0  0  0  0  0
  -20.4162  -17.4498  -17.6324 C   0  0  0  0  0  0
  -26.6714  -20.4663  -24.5928 C   0  0  0  0  0  0
  -26.2459  -22.3598  -22.5857 C   0  0  0  0  0  0
  -28.2845  -15.8759  -22.7930 C   0  0  0  0  0  0
  -23.6269  -19.4507  -18.2703 C   0  0  0  0  0  0
  -20.0339  -16.0982  -17.3751 C   0  0  0  0  0  0
  -28.3329  -16.3764  -24.0960 C   0  0  0  0  0  0
  -21.8832  -17.8753  -17.7178 C   0  0  0  0  0  0
  -31.0512  -14.1559  -25.6425 C   0  0  0  0  0  0
  -31.9170  -13.0268  -25.5399 C   0  0  0  0  0  0
  -24.5363  -18.4604  -17.7998 C   0  0  0  0  0  0
  -25.8076  -14.6057  -21.2192 C   0  0  0  0  0  0
  -28.7171   -9.4604  -20.0550 C   0  0  0  0  0  0
  -27.5115  -12.3933  -19.7844 C   0  0  0  0  0  0
  -30.9667   -8.1417  -19.9051 C   0  0  0  0  0  0
  -31.1003   -8.9961  -21.1446 C   0  0  0  0  0  0
  -24.3908  -14.3277  -19.1369 C   0  0  0  0  0  0
  -23.1344  -21.6760  -19.3840 C   0  0  0  0  0  0
  -25.2017  -21.4386  -18.2352 C   0  0  0  0  0  0
  -25.6802  -12.5246  -18.1000 C   0  0  0  0  0  0
  -23.8137  -22.3495  -20.6066 C   0  0  0  0  0  0
  -26.0579  -21.9155  -19.4101 C   0  0  0  0  0  0
  -25.3022  -13.6186  -20.1426 C   0  0  2  0  0  0
  -24.4852  -13.4638  -17.8877 C   0  0  2  0  0  0
  -29.7320   -8.4920  -20.7150 C   0  0  0  0  0  0
  -32.1148  -12.0600  -24.3927 C   0  0  0  0  0  0
  -28.7953  -13.4762  -16.9838 C   0  0  0  0  0  0
  -30.6153  -11.7916  -17.3445 C   0  0  0  0  0  0
  -30.2470  -13.5882  -19.0200 C   0  0  0  0  0  0
  -26.8879  -19.4351  -25.7012 C   0  0  0  0  0  0
  -27.3059  -16.4749  -21.7749 C   0  0  0  0  0  0
  -26.0079  -23.3971  -21.4904 C   0  0  0  0  0  0
  -27.9161  -18.3129  -25.4773 C   0  0  0  0  0  0
  -28.4927  -11.6645  -18.8125 C   0  0  2  0  0  0
  -29.5121  -12.6200  -18.0573 C   0  0  0  0  0  0
  -32.6383  -12.8141  -26.6347 N   0  0  0  0  0  0
  -22.8085  -16.9803  -17.2711 N   0  0  0  0  0  0
  -24.1157  -17.2777  -17.2909 N   0  0  0  0  0  0
  -24.0606  -20.6914  -18.7947 N   0  0  0  0  0  0
  -26.3551  -12.9594  -19.3313 N   0  0  0  0  0  0
  -25.9160  -18.6435  -17.8810 N   0  0  0  0  0  0
  -26.7209  -15.5151  -20.8280 N   0  0  0  0  0  0
  -29.2154  -10.5937  -19.5231 N   0  0  0  0  0  0
  -25.2182  -22.9105  -20.2452 N   0  3  0  0  0  0
  -25.3568  -14.5202  -22.3598 O   0  0  0  0  0  0
  -27.5165   -9.1773  -20.0256 O   0  0  0  0  0  0
  -27.8484  -12.4378  -20.9681 O   0  0  0  0  0  0
  -20.9762  -15.1151  -17.2257 O   0  0  0  0  0  0
  -23.3013  -12.7390  -17.6296 O   0  0  0  0  0  0
  -27.4939  -17.4154  -24.4592 O   0  0  0  0  0  0
  -29.1925   -7.5143  -21.4458 F   0  0  0  0  0  0
  -31.2308  -14.8816  -27.2327 S   0  0  0  0  0  0
  -17.2792  -18.7796  -17.8463 H   0  0  0  0  0  0
  -16.6565  -16.4399  -17.3922 H   0  0  0  0  0  0
  -19.6361  -19.4346  -17.9973 H   0  0  0  0  0  0
  -30.6503  -13.4738  -23.0180 H   0  0  0  0  0  0
  -29.0920  -14.4518  -21.4160 H   0  0  0  0  0  0
  -28.3985  -19.8787  -23.4386 H   0  0  0  0  0  0
  -24.9035  -21.2772  -25.5086 H   0  0  0  0  0  0
  -28.0233  -21.5540  -21.6688 H   0  0  0  0  0  0
  -24.5255  -22.9517  -23.7356 H   0  0  0  0  0  0
  -18.4046  -14.7286  -17.0976 H   0  0  0  0  0  0
  -29.2735  -16.1940  -26.0267 H   0  0  0  0  0  0
  -21.5236  -19.8202  -18.5649 H   0  0  0  0  0  0
  -32.8812  -13.6477  -28.5332 H   0  0  0  0  0  0
  -31.3346   -7.1164  -19.9364 H   0  0  0  0  0  0
  -31.1282   -8.6021  -18.9296 H   0  0  0  0  0  0
  -31.3622  -10.0488  -21.0455 H   0  0  0  0  0  0
  -31.5622   -8.5483  -22.0256 H   0  0  0  0  0  0
  -23.3774  -14.4369  -19.5344 H   0  0  0  0  0  0
  -24.7858  -15.3246  -18.9312 H   0  0  0  0  0  0
  -22.2311  -21.2167  -19.7818 H   0  0  0  0  0  0
  -22.8175  -22.4099  -18.6409 H   0  0  0  0  0  0
  -25.7981  -20.9235  -17.4903 H   0  0  0  0  0  0
  -24.8343  -22.2962  -17.6701 H   0  0  0  0  0  0
  -25.3072  -11.5150  -18.2596 H   0  0  0  0  0  0
  -26.3280  -12.4878  -17.2242 H   0  0  0  0  0  0
  -23.9555  -21.6097  -21.3971 H   0  0  0  0  0  0
  -23.2253  -23.1760  -21.0079 H   0  0  0  0  0  0
  -26.3214  -21.0771  -20.0534 H   0  0  0  0  0  0
  -26.9620  -22.4325  -19.0855 H   0  0  0  0  0  0
  -24.7185  -12.8565  -20.6585 H   0  0  0  0  0  0
  -24.6905  -14.1069  -17.0297 H   0  0  0  0  0  0
  -32.7107  -11.1973  -24.6753 H   0  0  0  0  0  0
  -31.1679  -11.6468  -24.0504 H   0  0  0  0  0  0
  -32.6196  -12.5255  -23.5482 H   0  0  0  0  0  0
  -29.5009  -14.1034  -16.4356 H   0  0  0  0  0  0
  -28.2835  -12.8560  -16.2459 H   0  0  0  0  0  0
  -28.0628  -14.1552  -17.4188 H   0  0  0  0  0  0
  -31.1758  -12.3837  -16.6183 H   0  0  0  0  0  0
  -31.3473  -11.3972  -18.0488 H   0  0  0  0  0  0
  -30.1902  -10.9356  -16.8257 H   0  0  0  0  0  0
  -31.1136  -14.0509  -18.5455 H   0  0  0  0  0  0
  -29.6010  -14.4065  -19.3353 H   0  0  0  0  0  0
  -30.6045  -13.0769  -19.9127 H   0  0  0  0  0  0
  -27.1841  -19.9804  -26.5952 H   0  0  0  0  0  0
  -25.9306  -18.9715  -25.9427 H   0  0  0  0  0  0
  -26.5005  -17.0146  -22.2759 H   0  0  0  0  0  0
  -27.8530  -17.2254  -21.2032 H   0  0  0  0  0  0
  -26.9527  -23.7792  -21.0990 H   0  0  0  0  0  0
  -25.4293  -24.2425  -21.8637 H   0  0  0  0  0  0
  -28.8987  -18.7131  -25.2254 H   0  0  0  0  0  0
  -27.9997  -17.7850  -26.4258 H   0  0  0  0  0  0
  -27.9130  -11.1349  -18.0555 H   0  0  0  0  0  0
  -26.5308  -17.9104  -17.5610 H   0  0  0  0  0  0
  -26.2883  -19.4916  -18.2899 H   0  0  0  0  0  0
  -27.0303  -15.5479  -19.8691 H   0  0  0  0  0  0
  -30.2061  -10.7524  -19.6058 H   0  0  0  0  0  0
  -25.0644  -23.7143  -19.6490 H   0  0  0  0  0  0
  -20.7093  -14.3884  -16.6438 H   0  0  0  0  0  0
  -22.6009  -13.3633  -17.4203 H   0  0  0  0  0  0
  1  2  1  0  0  0
  1  3  2  0  0  0
  1 67  1  0  0  0
  2 10  2  0  0  0
  2 68  1  0  0  0
  3 15  1  0  0  0
  3 69  1  0  0  0
  4  5  2  0  0  0
  4 14  1  0  0  0
  4 70  1  0  0  0
  5 18  1  0  0  0
  5 71  1  0  0  0
  6  8  2  0  0  0
  6 16  1  0  0  0
  6 72  1  0  0  0
  7  9  1  0  0  0
  7 16  2  0  0  0
  7 73  1  0  0  0
  8 17  1  0  0  0
  8 74  1  0  0  0
  9 17  2  0  0  0
  9 75  1  0  0  0
 10 20  1  0  0  0
 10 76  1  0  0  0
 11 14  2  0  0  0
 11 21  1  0  0  0
 11 77  1  0  0  0
 12 19  1  0  0  0
 12 22  2  0  0  0
 12 78  1  0  0  0
 13 50  2  0  0  0
 13 66  1  0  0  0
 13 79  1  0  0  0
 14 23  1  0  0  0
 15 20  2  0  0  0
 15 22  1  0  0  0
 16 44  1  0  0  0
 17 46  1  0  0  0
 18 21  2  0  0  0
 18 45  1  0  0  0
 19 25  2  0  0  0
 19 53  1  0  0  0
 20 62  1  0  0  0
 21 64  1  0  0  0
 22 51  1  0  0  0
 23 24  2  0  0  0
 23 66  1  0  0  0
 24 40  1  0  0  0
 24 50  1  0  0  0
 25 52  1  0  0  0
 25 55  1  0  0  0
 26 37  1  0  0  0
 26 56  1  0  0  0
 26 59  2  0  0  0
 27 39  1  0  0  0
 27 57  1  0  0  0
 27 60  2  0  0  0
 28 48  1  0  0  0
 28 54  1  0  0  0
 28 61  2  0  0  0
 29 30  1  0  0  0
 29 39  1  0  0  0
 29 80  1  0  0  0
 29 81  1  0  0  0
 30 39  1  0  0  0
 30 82  1  0  0  0
 30 83  1  0  0  0
 31 37  1  0  0  0
 31 38  1  0  0  0
 31 84  1  0  0  0
 31 85  1  0  0  0
 32 35  1  0  0  0
 32 53  1  0  0  0
 32 86  1  0  0  0
 32 87  1  0  0  0
 33 36  1  0  0  0
 33 53  1  0  0  0
 33 88  1  0  0  0
 33 89  1  0  0  0
 34 38  1  0  0  0
 34 54  1  0  0  0
 34 90  1  0  0  0
 34 91  1  0  0  0
 35 58  1  0  0  0
 35 92  1  0  0  0
 35 93  1  0  0  0
 36 58  1  0  0  0
 36 94  1  0  0  0
 36 95  1  0  0  0
 37 54  1  0  0  0
 37 96  1  0  0  0
 38 63  1  0  0  0
 38 97  1  0  0  0
 39 65  1  0  0  0
 40 98  1  0  0  0
 40 99  1  0  0  0
 40100  1  0  0  0
 41 49  1  0  0  0
 41101  1  0  0  0
 41102  1  0  0  0
 41103  1  0  0  0
 42 49  1  0  0  0
 42104  1  0  0  0
 42105  1  0  0  0
 42106  1  0  0  0
 43 49  1  0  0  0
 43107  1  0  0  0
 43108  1  0  0  0
 43109  1  0  0  0
 44 47  1  0  0  0
 44110  1  0  0  0
 44111  1  0  0  0
 45 56  1  0  0  0
 45112  1  0  0  0
 45113  1  0  0  0
 46 58  1  0  0  0
 46114  1  0  0  0
 46115  1  0  0  0
 47 64  1  0  0  0
 47116  1  0  0  0
 47117  1  0  0  0
 48 49  1  0  0  0
 48 57  1  0  0  0
 48118  1  0  0  0
 51 52  2  0  0  0
 55119  1  0  0  0
 55120  1  0  0  0
 56121  1  0  0  0
 57122  1  0  0  0
 58123  1  0  0  0
 62124  1  0  0  0
 63125  1  0  0  0
M  CHG  1  58   1
M  END
> <s_m_entry_id>
20

> <s_m_entry_name>
0000.1

> <s_m_Source_Path>
/mnt/home/boqing/Schrodinger_Projects/6HR2

> <s_m_Source_File>
0000.sdf

> <i_m_Source_File_Index>
1

> <s_m_job_name>
glide-dock_SP_0000_h

> <s_i_glide_gridfile>
glide-grid_crystal_ligand

> <i_i_glide_lignum>
1

> <i_i_glide_rotatable_bonds>
21

> <r_i_docking_score>
-9.14891582693503

> <r_i_glide_ligand_efficiency>
-0.138619936771743

> <r_i_glide_ligand_efficiency_sa>
-0.560196435355742

> <r_i_glide_ligand_efficiency_ln>
-1.76291415936518

> <r_i_glide_gscore>
-9.14891582693503

> <r_i_glide_evdw>
-50.299503326416

> <r_i_glide_ecoul>
-19.4064445495605

> <r_i_glide_energy>
-69.7059478759766

> <r_i_glide_einternal>
22.18186378479

> <r_i_glide_emodel>
-100.818326994144

> <r_i_glide_intrahb_reward>
0

> <i_i_glide_confnum>
391

> <i_i_glide_posenum>
250

> <r_i_glide_eff_state_penalty>
0

> <Batch ID>
0

> <Smiles>
Cc1ncsc1-c1ccc(CNC(=O)[C@@H]2C[C@@H](O)CN2C(=O)[C@@H](NC(=O)C2(F)CC2)C(C)(C)C)c([101O][100CH2]Cc2ccc([101CH2][100N]3CCN(c4cc(-c5ccccc5O)nnc4N)CC3)cc2)c1

> <Shape>
0.407

> <Color>
0.228

> <Negative vol penalty>
0

> <chiral flag>
1

> <version>
0

> <r_i_glide_lipo>
-2.84426062112995

> <r_i_glide_hbond>
-0.404540913601122

> <r_i_glide_metal>
0

> <r_i_glide_rewards>
-0.591071501364857

> <r_i_glide_erotb>
0.223434687969801

> <r_i_glide_esite>
-0.106535630054023

> <s_m_subgroup_title>
glide-dock_SP_0000_h_pv1

> <s_m_subgroupid>
glide-dock_SP_0000_h_pv1

> <b_m_subgroup_collapsed>
0

$$$$
