ligand
                    3D
 Structure written by MMmdl.
124131  0  0  1  0            999 V2000
  -20.0503  -11.9161  -27.7966 N   0  0  0  0  0  0
  -21.9399  -10.5426  -26.7344 C   0  0  0  0  0  0
  -20.9297  -14.4031  -26.4788 C   0  0  0  0  0  0
  -20.8166  -12.6827  -24.6618 C   0  0  0  0  0  0
  -23.0200  -13.3109  -25.6722 C   0  0  0  0  0  0
  -23.9548   -8.9757  -26.7353 C   0  0  1  0  0  0
  -23.9993  -10.9132  -28.0878 C   0  0  0  0  0  0
  -23.8524   -8.4325  -25.3056 C   0  0  0  0  0  0
  -23.0368   -6.0128  -21.7561 C   0  0  0  0  0  0
  -21.8362   -5.8934  -21.0397 C   0  0  0  0  0  0
  -20.6044   -6.0729  -21.6829 C   0  0  0  0  0  0
  -21.7652   -6.5024  -23.7576 C   0  0  0  0  0  0
  -17.9706   -5.9147  -21.3505 C   0  0  0  0  0  0
  -17.6780   -5.5228  -19.2263 C   0  0  0  0  0  0
  -21.3659  -11.9504  -27.1200 C   0  0  2  0  0  0
  -21.5224  -13.0546  -25.9924 C   0  0  0  0  0  0
  -23.2409  -10.2426  -27.0250 N   0  0  0  0  0  0
  -21.2093   -9.7475  -26.1456 O   0  0  0  0  0  0
  -25.4297   -9.2425  -26.9859 C   0  0  0  0  0  0
  -25.4155  -10.3476  -28.0010 C   0  0  1  0  0  0
  -25.9127   -9.9150  -29.2256 O   0  0  0  0  0  0
  -23.5793   -9.1732  -24.3609 O   0  0  0  0  0  0
  -24.2093   -7.1416  -25.2008 N   0  0  0  0  0  0
  -24.2960   -6.4727  -23.9040 C   0  0  0  0  0  0
  -22.9960   -6.3237  -23.1178 C   0  0  0  0  0  0
  -20.5833   -6.3783  -23.0471 C   0  0  0  0  0  0
  -19.3220   -5.9153  -20.9133 C   0  0  0  0  0  0
  -17.1122   -5.7074  -20.3753 N   0  0  0  0  0  0
  -19.3710   -5.6571  -19.1705 S   0  0  0  0  0  0
  -17.3994   -6.0956  -22.7470 C   0  0  0  0  0  0
  -18.8478  -11.4865  -27.3641 C   0  0  0  0  0  0
  -17.6608  -11.6587  -28.3282 C   0  0  0  0  0  0
  -18.6720  -10.9781  -26.2575 O   0  0  0  0  0  0
  -17.1289  -10.5176  -28.7750 F   0  0  0  0  0  0
  -17.5453  -12.8956  -29.2051 C   0  0  0  0  0  0
  -16.6816  -12.7546  -27.9677 C   0  0  0  0  0  0
  -24.2620   -5.8201  -21.1370 O   0  0  0  0  0  0
  -24.3348   -5.6663  -19.7228 C   0  0  0  0  0  0
  -25.7478   -5.6847  -19.0936 C   0  0  0  0  0  0
  -30.0297   -9.3771  -20.5935 C   0  0  0  0  0  0
  -29.8299  -10.1771  -21.8078 N   0  0  0  0  0  0
  -28.9127  -11.3009  -21.5922 C   0  0  0  0  0  0
  -28.6941  -12.0111  -22.9420 C   0  0  0  0  0  0
  -29.9555  -12.6338  -23.4104 N   0  0  0  0  0  0
  -30.9289  -11.5308  -23.5805 C   0  0  0  0  0  0
  -31.1087  -10.7299  -22.2644 C   0  0  0  0  0  0
  -29.9512  -13.7378  -24.2972 C   0  0  0  0  0  0
  -30.8709  -13.8084  -25.3552 C   0  0  0  0  0  0
  -30.8275  -14.9198  -26.2139 C   0  0  0  0  0  0
  -29.9158  -15.9148  -26.0255 N   0  0  0  0  0  0
  -29.0401  -15.8767  -25.0110 N   0  0  0  0  0  0
  -29.0482  -14.8316  -24.1536 C   0  0  0  0  0  0
  -28.1498  -14.8919  -23.0897 N   0  0  0  0  0  0
  -31.7974  -15.1306  -27.3975 C   0  0  0  0  0  0
  -32.6341  -14.0918  -27.9186 C   0  0  0  0  0  0
  -33.5044  -14.3543  -28.9799 C   0  0  0  0  0  0
  -33.5595  -15.6181  -29.5512 C   0  0  0  0  0  0
  -32.7457  -16.6345  -29.0746 C   0  0  0  0  0  0
  -31.8729  -16.4006  -28.0133 C   0  0  0  0  0  0
  -32.5896  -12.8235  -27.4173 O   0  0  0  0  0  0
  -26.8423   -6.6720  -19.4939 C   0  0  0  0  0  0
  -27.9814   -6.7870  -18.6936 C   0  0  0  0  0  0
  -28.9994   -7.6632  -19.0484 C   0  0  0  0  0  0
  -28.8910   -8.4267  -20.2091 C   0  0  0  0  0  0
  -27.7491   -8.3121  -21.0144 C   0  0  0  0  0  0
  -26.7277   -7.4423  -20.6537 C   0  0  0  0  0  0
  -20.0580  -12.4026  -28.6922 H   0  0  0  0  0  0
  -21.0895  -15.1975  -25.7505 H   0  0  0  0  0  0
  -19.8563  -14.3419  -26.6446 H   0  0  0  0  0  0
  -21.3839  -14.7271  -27.4155 H   0  0  0  0  0  0
  -21.0309  -13.4146  -23.8823 H   0  0  0  0  0  0
  -21.1351  -11.7131  -24.2789 H   0  0  0  0  0  0
  -19.7340  -12.6594  -24.7653 H   0  0  0  0  0  0
  -23.1414  -14.0894  -24.9160 H   0  0  0  0  0  0
  -23.5707  -13.6435  -26.5523 H   0  0  0  0  0  0
  -23.5186  -12.4217  -25.2808 H   0  0  0  0  0  0
  -23.6122   -8.2078  -27.4281 H   0  0  0  0  0  0
  -23.5512  -10.6821  -29.0587 H   0  0  0  0  0  0
  -24.0174  -11.9991  -27.9849 H   0  0  0  0  0  0
  -21.8576   -5.6475  -19.9928 H   0  0  0  0  0  0
  -21.7286   -6.7391  -24.8098 H   0  0  0  0  0  0
  -17.1140   -5.3279  -18.3291 H   0  0  0  0  0  0
  -21.9561  -12.3213  -27.9550 H   0  0  0  0  0  0
  -25.9150   -8.3249  -27.3239 H   0  0  0  0  0  0
  -25.9291   -9.5806  -26.0733 H   0  0  0  0  0  0
  -26.0906  -11.1147  -27.6372 H   0  0  0  0  0  0
  -25.2361   -9.5220  -29.8030 H   0  0  0  0  0  0
  -24.4568   -6.6105  -26.0217 H   0  0  0  0  0  0
  -24.6913   -5.4772  -24.0740 H   0  0  0  0  0  0
  -25.0478   -6.9783  -23.2979 H   0  0  0  0  0  0
  -19.6528   -6.5215  -23.5587 H   0  0  0  0  0  0
  -16.3199   -5.9609  -22.8210 H   0  0  0  0  0  0
  -17.8246   -5.3759  -23.4454 H   0  0  0  0  0  0
  -17.5931   -7.0995  -23.1251 H   0  0  0  0  0  0
  -17.0850  -12.7888  -30.1896 H   0  0  0  0  0  0
  -18.3155  -13.6711  -29.1983 H   0  0  0  0  0  0
  -16.8894  -13.4081  -27.1165 H   0  0  0  0  0  0
  -15.6163  -12.5560  -28.0864 H   0  0  0  0  0  0
  -23.7289   -6.4182  -19.2250 H   0  0  0  0  0  0
  -23.8723   -4.7161  -19.4606 H   0  0  0  0  0  0
  -25.6082   -5.7865  -18.0242 H   0  0  0  0  0  0
  -26.2040   -4.7145  -19.2256 H   0  0  0  0  0  0
  -30.2601  -10.0260  -19.7469 H   0  0  0  0  0  0
  -30.9071   -8.7430  -20.7289 H   0  0  0  0  0  0
  -27.9561  -10.9802  -21.1787 H   0  0  0  0  0  0
  -29.3422  -11.9921  -20.8632 H   0  0  0  0  0  0
  -28.4105  -11.2683  -23.6910 H   0  0  0  0  0  0
  -27.8103  -12.6295  -22.8742 H   0  0  0  0  0  0
  -30.6019  -10.8721  -24.3872 H   0  0  0  0  0  0
  -31.9181  -11.9127  -23.8288 H   0  0  0  0  0  0
  -31.8202   -9.9173  -22.4249 H   0  0  0  0  0  0
  -31.5180  -11.3797  -21.4872 H   0  0  0  0  0  0
  -31.5865  -13.0343  -25.4820 H   0  0  0  0  0  0
  -27.5424  -15.6942  -23.0006 H   0  0  0  0  0  0
  -28.1463  -14.1557  -22.4006 H   0  0  0  0  0  0
  -34.1330  -13.5653  -29.3663 H   0  0  0  0  0  0
  -34.2346  -15.8099  -30.3746 H   0  0  0  0  0  0
  -32.7899  -17.6146  -29.5271 H   0  0  0  0  0  0
  -31.2533  -17.2106  -27.6568 H   0  0  0  0  0  0
  -31.7379  -12.6628  -27.0053 H   0  0  0  0  0  0
  -28.0734   -6.1920  -17.7955 H   0  0  0  0  0  0
  -29.8792   -7.7483  -18.4255 H   0  0  0  0  0  0
  -27.6575   -8.8951  -21.9178 H   0  0  0  0  0  0
  -25.8597   -7.3657  -21.2774 H   0  0  0  0  0  0
  1 15  1  0  0  0
  1 31  1  0  0  0
  1 67  1  0  0  0
  2 15  1  0  0  0
  2 17  1  0  0  0
  2 18  2  0  0  0
  3 16  1  0  0  0
  3 68  1  0  0  0
  3 69  1  0  0  0
  3 70  1  0  0  0
  4 16  1  0  0  0
  4 71  1  0  0  0
  4 72  1  0  0  0
  4 73  1  0  0  0
  5 16  1  0  0  0
  5 74  1  0  0  0
  5 75  1  0  0  0
  5 76  1  0  0  0
  6  8  1  0  0  0
  6 17  1  0  0  0
  6 19  1  0  0  0
  6 77  1  0  0  0
  7 17  1  0  0  0
  7 20  1  0  0  0
  7 78  1  0  0  0
  7 79  1  0  0  0
  8 22  2  0  0  0
  8 23  1  0  0  0
  9 10  1  0  0  0
  9 25  2  0  0  0
  9 37  1  0  0  0
 10 11  2  0  0  0
 10 80  1  0  0  0
 11 26  1  0  0  0
 11 27  1  0  0  0
 12 25  1  0  0  0
 12 26  2  0  0  0
 12 81  1  0  0  0
 13 27  2  0  0  0
 13 28  1  0  0  0
 13 30  1  0  0  0
 14 28  2  0  0  0
 14 29  1  0  0  0
 14 82  1  0  0  0
 15 16  1  0  0  0
 15 83  1  0  0  0
 19 20  1  0  0  0
 19 84  1  0  0  0
 19 85  1  0  0  0
 20 21  1  0  0  0
 20 86  1  0  0  0
 21 87  1  0  0  0
 23 24  1  0  0  0
 23 88  1  0  0  0
 24 25  1  0  0  0
 24 89  1  0  0  0
 24 90  1  0  0  0
 26 91  1  0  0  0
 27 29  1  0  0  0
 30 92  1  0  0  0
 30 93  1  0  0  0
 30 94  1  0  0  0
 31 32  1  0  0  0
 31 33  2  0  0  0
 32 34  1  0  0  0
 32 35  1  0  0  0
 32 36  1  0  0  0
 35 36  1  0  0  0
 35 95  1  0  0  0
 35 96  1  0  0  0
 36 97  1  0  0  0
 36 98  1  0  0  0
 37 38  1  0  0  0
 38 39  1  0  0  0
 38 99  1  0  0  0
 38100  1  0  0  0
 39 61  1  0  0  0
 39101  1  0  0  0
 39102  1  0  0  0
 40 41  1  0  0  0
 40 64  1  0  0  0
 40103  1  0  0  0
 40104  1  0  0  0
 41 42  1  0  0  0
 41 46  1  0  0  0
 42 43  1  0  0  0
 42105  1  0  0  0
 42106  1  0  0  0
 43 44  1  0  0  0
 43107  1  0  0  0
 43108  1  0  0  0
 44 45  1  0  0  0
 44 47  1  0  0  0
 45 46  1  0  0  0
 45109  1  0  0  0
 45110  1  0  0  0
 46111  1  0  0  0
 46112  1  0  0  0
 47 48  1  0  0  0
 47 52  2  0  0  0
 48 49  2  0  0  0
 48113  1  0  0  0
 49 50  1  0  0  0
 49 54  1  0  0  0
 50 51  2  0  0  0
 51 52  1  0  0  0
 52 53  1  0  0  0
 53114  1  0  0  0
 53115  1  0  0  0
 54 55  1  0  0  0
 54 59  2  0  0  0
 55 56  2  0  0  0
 55 60  1  0  0  0
 56 57  1  0  0  0
 56116  1  0  0  0
 57 58  2  0  0  0
 57117  1  0  0  0
 58 59  1  0  0  0
 58118  1  0  0  0
 59119  1  0  0  0
 60120  1  0  0  0
 61 62  1  0  0  0
 61 66  2  0  0  0
 62 63  2  0  0  0
 62121  1  0  0  0
 63 64  1  0  0  0
 63122  1  0  0  0
 64 65  2  0  0  0
 65 66  1  0  0  0
 65123  1  0  0  0
 66124  1  0  0  0
M  END
> <s_m_entry_id>
25

> <s_m_entry_name>
6hr2.1_ligand

> <s_m_source_file>
ligprep_1.maegz

> <i_m_source_file_index>
1

> <i_lp_mmshare_version>
38013

> <i_f3d_flags>
0

> <s_lp_Force_Field>
OPLS3

> <r_lp_Energy>
105.188621881688

> <b_lp_Chiralities_Consistent>
1

> <s_lp_Variant>
ligand-1

> <s_m_job_name>
glide-dock_SP_ligprep_ligand

> <s_i_glide_gridfile>
glide-grid_crystal_ligand

> <i_i_glide_lignum>
1

> <i_i_glide_rotatable_bonds>
21

> <r_i_docking_score>
-11.8330256994866

> <r_i_glide_ligand_efficiency>
-0.17928826817404

> <r_i_glide_ligand_efficiency_sa>
-0.724546923561107

> <r_i_glide_ligand_efficiency_ln>
-2.28011809796544

> <r_i_glide_gscore>
-11.8330256994866

> <r_i_glide_evdw>
-74.4280700683594

> <r_i_glide_ecoul>
-10.9521760940552

> <r_i_glide_energy>
-85.3802461624146

> <r_i_glide_einternal>
18.983362197876

> <r_i_glide_emodel>
-127.093421665049

> <r_i_glide_intrahb_reward>
0

> <i_i_glide_confnum>
343

> <i_i_glide_posenum>
63

> <r_i_glide_eff_state_penalty>
0

> <r_i_glide_lipo>
-5.16987246499107

> <r_i_glide_hbond>
-0.437141662786762

> <r_i_glide_metal>
0

> <r_i_glide_rewards>
-0.963767012766034

> <r_i_glide_erotb>
0.224426659887596

> <r_i_glide_esite>
-0.12244130130413

> <s_m_subgroup_title>
glide-dock_SP_ligprep_ligand_pv1

> <s_m_subgroupid>
glide-dock_SP_ligprep_ligand_pv1

> <b_m_subgroup_collapsed>
0

$$$$
