0:0:0
                    3D
 Structure written by MMmdl.
 74 80  0  0  1  0            999 V2000
   28.9820  -24.6410  -23.1410 C   0  0  0  0  0  0
   27.5770  -23.5380  -24.8280 N   0  0  0  0  0  0
   27.9970  -23.5550  -23.5600 C   0  0  0  0  0  0
   27.6290  -22.7270  -22.7220 O   0  0  0  0  0  0
   27.8740  -24.2860  -25.4400 H   0  0  0  0  0  0
   26.6130  -22.5850  -25.3930 C   0  0  2  0  0  0
   27.4050  -19.1320  -23.6860 C   0  0  2  0  0  0
   28.4080  -18.1680  -24.3410 C   0  0  0  0  0  0
   29.3610  -19.0700  -25.0950 C   0  0  2  0  0  0
   28.5260  -20.2880  -25.4860 C   0  0  0  0  0  0
   27.3890  -20.3260  -24.5560 N   0  0  0  0  0  0
   26.5290  -21.3670  -24.4280 C   0  0  0  0  0  0
   25.6850  -21.4030  -23.5310 O   0  0  0  0  0  0
   25.8640  -17.8330  -22.3150 N   0  0  0  0  0  0
   26.0570  -18.4150  -23.5020 C   0  0  0  0  0  0
   25.2530  -18.3370  -24.4320 O   0  0  0  0  0  0
   26.5770  -17.9500  -21.6070 H   0  0  0  0  0  0
   24.7580  -16.9410  -21.9890 C   0  0  0  0  0  0
   25.1970  -13.0180  -23.8230 C   0  0  0  0  0  0
   23.9120  -13.5380  -23.5630 C   0  0  0  0  0  0
   23.7670  -14.8030  -22.9680 C   0  0  0  0  0  0
   26.3360  -13.7740  -23.4780 C   0  0  0  0  0  0
   26.1890  -15.0420  -22.8800 C   0  0  0  0  0  0
   24.9050  -15.5640  -22.6230 C   0  0  0  0  0  0
   25.3830  -10.0430  -22.5850 C   0  0  0  0  0  0
   25.3740  -10.4750  -24.0380 C   0  0  0  0  0  0
   25.5200   -9.5010  -25.0030 N   0  0  0  0  0  0
   25.7340   -9.9620  -26.3690 C   0  0  0  0  0  0
   25.3350  -11.7290  -26.2760 S   0  0  0  0  0  0
   25.3230  -11.7260  -24.5190 C   0  0  0  0  0  0
   25.6800   -8.5220  -24.7840 H   0  0  0  0  0  0
   30.4200  -19.4850  -24.2480 O   0  0  0  0  0  0
   30.0470  -19.9480  -23.5040 H   0  0  0  0  0  0
   25.2390  -23.3210  -25.5930 C   0  0  0  0  0  0
   25.4510  -24.5150  -26.5510 C   0  0  0  0  0  0
   24.6360  -23.8620  -24.2740 C   0  0  0  0  0  0
   24.1930  -22.3950  -26.2540 C   0  0  0  0  0  0
   28.3040  -25.8960  -23.1540 O   0  0  0  0  0  0
   28.1510  -26.5180  -21.8850 C   0  0  0  0  0  0
   29.4070  -26.7880  -21.0270 C   0  0  0  0  0  0
   29.9400  -25.5820  -20.4610 O   0  0  0  0  0  0
   29.5160  -25.3400  -19.1120 C   0  0  0  0  0  0
   28.6500  -24.0660  -18.9580 C   0  0  0  0  0  0
   27.3660  -24.2910  -18.3650 O   0  0  0  0  0  0
   26.6920  -25.3980  -18.9740 C   0  0  0  0  0  0
   25.2120  -25.5930  -18.5260 C   0  0  0  0  0  0
   23.7430  -26.1940  -20.5020 C   0  0  0  0  0  0
   24.3100  -27.2640  -20.6850 O   0  0  0  0  0  0
   24.1590  -25.3580  -19.5350 N   0  0  0  0  0  0
   23.7020  -24.4560  -19.4920 H   0  0  0  0  0  0
   22.6510  -25.7260  -21.4890 C   0  0  0  0  0  0
   21.8580  -26.9510  -22.0310 C   0  0  2  0  0  0
   21.7430  -27.9110  -20.9370 N   0  0  0  0  0  0
   22.4320  -27.6600  -23.2480 C   0  0  0  0  0  0
   23.6140  -27.4250  -23.8360 N   0  0  0  0  0  0
   23.7330  -28.3740  -24.8340 N   0  0  0  0  0  0
   22.6190  -29.1080  -24.7720 C   0  0  0  0  0  0
   22.3720  -30.3020  -25.6420 C   0  0  0  0  0  0
   21.7650  -28.6860  -23.8170 N   0  0  0  0  0  0
   20.4880  -29.1650  -23.4550 C   0  0  0  0  0  0
   19.2590  -29.6930  -24.5590 S   0  0  0  0  0  0
   18.1250  -29.9260  -23.2580 C   0  0  0  0  0  0
   16.7450  -30.4100  -23.5640 C   0  0  0  0  0  0
   18.6650  -29.5910  -22.0360 C   0  0  0  0  0  0
   17.8610  -29.6020  -20.7610 C   0  0  0  0  0  0
   20.0460  -29.2010  -22.1510 C   0  0  0  0  0  0
   20.9150  -28.8810  -20.9740 C   0  0  0  0  0  0
   20.8510  -29.7540  -19.7860 C   0  0  0  0  0  0
   20.6240  -29.1970  -18.5120 C   0  0  0  0  0  0
   20.5940  -30.0210  -17.3730 C   0  0  0  0  0  0
   20.7750  -31.4100  -17.5030 C   0  0  0  0  0  0
   20.7210  -32.4070  -16.0980 Cl  0  0  0  0  0  0
   20.9610  -31.9730  -18.7820 C   0  0  0  0  0  0
   21.0000  -31.1460  -19.9190 C   0  0  0  0  0  0
  1  3  1  0  0  0
  1 38  1  0  0  0
  2  3  1  0  0  0
  2  5  1  0  0  0
  2  6  1  0  0  0
  3  4  2  0  0  0
  6 12  1  0  0  0
  6 34  1  0  0  0
  7 15  1  0  0  0
  7  8  1  0  0  0
  7 11  1  0  0  0
  8  9  1  0  0  0
  9 32  1  0  0  0
  9 10  1  0  0  0
 10 11  1  0  0  0
 11 12  1  0  0  0
 12 13  2  0  0  0
 14 18  1  0  0  0
 14 17  1  0  0  0
 14 15  1  0  0  0
 15 16  2  0  0  0
 18 24  1  0  0  0
 19 20  2  0  0  0
 19 22  1  0  0  0
 19 30  1  0  0  0
 20 21  1  0  0  0
 21 24  2  0  0  0
 22 23  2  0  0  0
 23 24  1  0  0  0
 25 26  1  0  0  0
 26 27  1  0  0  0
 26 30  2  0  0  0
 27 31  1  0  0  0
 27 28  1  0  0  0
 28 29  1  0  0  0
 29 30  1  0  0  0
 32 33  1  0  0  0
 34 36  1  0  0  0
 34 35  1  0  0  0
 34 37  1  0  0  0
 38 39  1  0  0  0
 39 40  1  0  0  0
 40 41  1  0  0  0
 41 42  1  0  0  0
 42 43  1  0  0  0
 43 44  1  0  0  0
 44 45  1  0  0  0
 45 46  1  0  0  0
 46 49  1  0  0  0
 47 49  1  0  0  0
 47 48  2  0  0  0
 47 51  1  0  0  0
 49 50  1  0  0  0
 51 52  1  0  0  0
 52 53  1  0  0  0
 52 54  1  0  0  0
 53 67  2  0  0  0
 54 55  2  0  0  0
 54 59  1  0  0  0
 55 56  1  0  0  0
 56 57  2  0  0  0
 57 59  1  0  0  0
 57 58  1  0  0  0
 59 60  1  0  0  0
 60 66  2  0  0  0
 60 61  1  0  0  0
 61 62  1  0  0  0
 62 64  2  0  0  0
 62 63  1  0  0  0
 64 65  1  0  0  0
 64 66  1  0  0  0
 66 67  1  0  0  0
 67 68  1  0  0  0
 68 69  1  0  0  0
 68 74  2  0  0  0
 69 70  2  0  0  0
 70 71  1  0  0  0
 71 72  1  0  0  0
 71 73  2  0  0  0
 73 74  1  0  0  0
M  END
> <TORSDO>
F 22

> <SCORE>
-3.059

> <name>
0

> <ligand_id>
0

> <original_smiles>
[H]OC1([H])C([H])([H])N(C(=O)C([H])(N([H])C(=O)C([H])([H])OC([H])([H])C([H])([H])OC([H])([H])C([H])([H])OC([H])([H])C([H])([H])N([H])C(=O)C([H])([H])C2([H])N=C(c3c([H])c([H])c(Cl)c([H])c3[H])c3c(sc(C([H])([H])[H])c3C([H])([H])[H])-n3c(C([H])([H])[H])nnc32)C(C([H])([H])[H])(C([H])([H])[H])C([H])([H])[H])C([H])(C(=O)N([H])C([H])([H])c2c([H])c([H])c(C3=C(C([H])([H])[H])N([H])C([H])([H])S3)c([H])c2[H])C1([H])[H]

> <smiles>
[H]OC1([H])C([H])([H])N(C(=O)C([H])(N([H])C(=O)C([H])([H])OC([H])([H])C([H])([H])OC([H])([H])C([H])([H])OC([H])([H])C([H])([H])N([H])C(=O)C([H])([H])C2([H])N=C(c3c([H])c([H])c(Cl)c([H])c3[H])c3c(sc(C([H])([H])[H])c3C([H])([H])[H])-n3c(C([H])([H])[H])nnc32)C(C([H])([H])[H])(C([H])([H])[H])C([H])([H])[H])C([H])(C(=O)N([H])C([H])([H])c2c([H])c([H])c(C3=C(C([H])([H])[H])N([H])C([H])([H])S3)c([H])c2[H])C1([H])[H]

> <chiral flag>
1

> <version>
0

$$$$
