ligand
                    3D
 Structure written by MMmdl.
131137  0  0  1  0            999 V2000
    9.2752    4.9297    6.3260 C   0  0  0  0  0  0
    9.2753    6.3749    6.7929 C   0  0  0  0  0  0
   10.4613    6.9166    7.2250 N   0  0  0  0  0  0
   10.4255    8.3132    7.6158 C   0  0  0  0  0  0
    8.7115    8.8422    7.4293 S   0  0  0  0  0  0
    8.2538    7.2554    6.7879 C   0  0  0  0  0  0
    6.8398    6.9846    6.4488 C   0  0  0  0  0  0
    6.1935    5.8359    6.9194 C   0  0  0  0  0  0
    4.8641    5.5887    6.5894 C   0  0  0  0  0  0
    6.1312    7.8863    5.6478 C   0  0  0  0  0  0
    4.8014    7.6421    5.3165 C   0  0  0  0  0  0
    4.1689    6.4863    5.7776 C   0  0  0  0  0  0
    2.7105    6.2335    5.4301 C   0  0  0  0  0  0
    2.5324    5.8217    4.0385 N   0  0  0  0  0  0
    1.7465    6.4502    3.1500 C   0  0  0  0  0  0
    1.1048    7.4746    3.3852 O   0  0  0  0  0  0
    1.6418    5.7908    1.7562 C   0  0  2  0  0  0
    1.9210    6.7741    0.6093 C   0  0  0  0  0  0
    1.1791    6.1199   -0.5462 C   0  0  1  0  0  0
    1.9297    5.0688   -1.1278 O   0  0  0  0  0  0
   -0.1056    5.6139    0.1158 C   0  0  0  0  0  0
    0.2915    5.2340    1.4808 N   0  0  0  0  0  0
   -0.4323    4.4276    2.3052 C   0  0  0  0  0  0
    0.0296    3.9790    3.3571 O   0  0  0  0  0  0
   -1.9072    4.0694    1.9686 C   0  0  2  0  0  0
   -2.9675    5.0130    2.6685 C   0  0  0  0  0  0
   -4.4103    4.5614    2.3234 C   0  0  0  0  0  0
   -2.8185    6.4757    2.1773 C   0  0  0  0  0  0
   -2.8342    5.0069    4.2146 C   0  0  0  0  0  0
   -2.0551    2.6503    2.3087 N   0  0  0  0  0  0
   -2.7239    1.7111    1.6204 C   0  0  0  0  0  0
   -3.4431    1.9525    0.6514 O   0  0  0  0  0  0
   -2.5308    0.2728    2.1051 C   0  0  0  0  0  0
   -1.1323    0.0146    2.1268 O   0  0  0  0  0  0
   -0.7415   -1.1459    2.8428 C   0  0  0  0  0  0
    0.7757   -1.3132    2.6922 C   0  0  0  0  0  0
    1.4112   -0.1624    3.2301 O   0  0  0  0  0  0
    2.8189   -0.1182    3.0358 C   0  0  0  0  0  0
    3.3547    1.1446    3.7226 C   0  0  0  0  0  0
    3.0786    1.0278    5.1106 O   0  0  0  0  0  0
    3.1286    2.2407    5.8511 C   0  0  0  0  0  0
    2.2740    2.0566    7.1188 C   0  0  0  0  0  0
    0.9175    1.6075    6.8035 N   0  0  0  0  0  0
   -0.0882    2.4044    6.4060 C   0  0  0  0  0  0
   -0.0306    3.6346    6.4205 O   0  0  0  0  0  0
   -1.3399    1.6999    5.8651 C   0  0  0  0  0  0
   -2.6195    1.9037    6.7296 C   0  0  2  0  0  0
   -2.5236    1.2682    8.0443 N   0  0  0  0  0  0
   -3.9030    1.5150    5.9955 C   0  0  0  0  0  0
   -4.8321    2.3397    5.5758 N   0  0  0  0  0  0
   -5.8439    1.5778    5.0077 N   0  0  0  0  0  0
   -5.4884    0.3225    5.1146 C   0  0  0  0  0  0
   -6.3414   -0.8308    4.6291 C   0  0  0  0  0  0
   -4.2498    0.2086    5.7184 N   0  0  0  0  0  0
   -3.4860   -0.9088    6.0035 C   0  0  0  0  0  0
   -3.4188   -2.3122    4.9984 S   0  0  0  0  0  0
   -2.2187   -3.0608    5.9905 C   0  0  0  0  0  0
   -1.6789   -4.4161    5.5884 C   0  0  0  0  0  0
   -1.8750   -2.2457    7.0770 C   0  0  0  0  0  0
   -0.7707   -2.6275    8.0530 C   0  0  0  0  0  0
   -2.6384   -1.0413    7.1236 C   0  0  0  0  0  0
   -2.5494   -0.0092    8.2004 C   0  0  0  0  0  0
   -2.4966   -0.5447    9.5784 C   0  0  0  0  0  0
   -3.3652   -1.5722    9.9755 C   0  0  0  0  0  0
   -3.3145   -2.0717   11.2740 C   0  0  0  0  0  0
   -2.4013   -1.5438   12.1838 C   0  0  0  0  0  0
   -2.3391   -2.1645   13.7930 Cl  0  0  0  0  0  0
   -1.5394   -0.5171   11.8055 C   0  0  0  0  0  0
   -1.5883   -0.0156   10.5076 C   0  0  0  0  0  0
    8.3945    4.6956    5.7282 H   0  0  0  0  0  0
   10.1508    4.7264    5.7084 H   0  0  0  0  0  0
    9.2981    4.2570    7.1836 H   0  0  0  0  0  0
   11.3469    6.4328    7.2681 H   0  0  0  0  0  0
   11.0615    8.9177    6.9693 H   0  0  0  0  0  0
   10.7354    8.4430    8.6527 H   0  0  0  0  0  0
    6.7165    5.1343    7.5527 H   0  0  0  0  0  0
    4.3779    4.7029    6.9698 H   0  0  0  0  0  0
    6.6103    8.7805    5.2761 H   0  0  0  0  0  0
    4.2654    8.3476    4.6979 H   0  0  0  0  0  0
    2.1422    7.1340    5.6737 H   0  0  0  0  0  0
    2.2966    5.4510    6.0681 H   0  0  0  0  0  0
    3.0079    4.9769    3.7563 H   0  0  0  0  0  0
    2.3835    4.9929    1.6941 H   0  0  0  0  0  0
    2.9912    6.8971    0.4362 H   0  0  0  0  0  0
    1.4902    7.7528    0.8291 H   0  0  0  0  0  0
    0.9460    6.8528   -1.3195 H   0  0  0  0  0  0
    2.1185    4.4179   -0.4479 H   0  0  0  0  0  0
   -0.5435    4.7932   -0.4533 H   0  0  0  0  0  0
   -0.8419    6.4158    0.1657 H   0  0  0  0  0  0
   -2.0556    4.1466    0.8926 H   0  0  0  0  0  0
   -4.6437    3.5818    2.7418 H   0  0  0  0  0  0
   -5.1561    5.2523    2.7191 H   0  0  0  0  0  0
   -4.5647    4.5052    1.2450 H   0  0  0  0  0  0
   -1.8460    6.8987    2.4317 H   0  0  0  0  0  0
   -2.9396    6.5481    1.0958 H   0  0  0  0  0  0
   -3.5685    7.1281    2.6269 H   0  0  0  0  0  0
   -1.8946    5.4480    4.5493 H   0  0  0  0  0  0
   -3.6336    5.5759    4.6909 H   0  0  0  0  0  0
   -2.8779    3.9968    4.6148 H   0  0  0  0  0  0
   -1.4989    2.3535    3.0978 H   0  0  0  0  0  0
   -3.0281   -0.4289    1.4335 H   0  0  0  0  0  0
   -2.9829    0.1641    3.0921 H   0  0  0  0  0  0
   -1.2600   -2.0278    2.4626 H   0  0  0  0  0  0
   -0.9968   -1.0309    3.8967 H   0  0  0  0  0  0
    1.0305   -1.4295    1.6370 H   0  0  0  0  0  0
    1.1107   -2.2089    3.2177 H   0  0  0  0  0  0
    3.0542   -0.0942    1.9705 H   0  0  0  0  0  0
    3.2885   -1.0066    3.4627 H   0  0  0  0  0  0
    2.8622    2.0192    3.2916 H   0  0  0  0  0  0
    4.4281    1.2541    3.5632 H   0  0  0  0  0  0
    2.7260    3.0737    5.2712 H   0  0  0  0  0  0
    4.1625    2.4801    6.1008 H   0  0  0  0  0  0
    2.2568    2.9779    7.7043 H   0  0  0  0  0  0
    2.7307    1.2958    7.7523 H   0  0  0  0  0  0
    0.7707    0.6087    6.7949 H   0  0  0  0  0  0
   -1.1318    0.6435    5.6957 H   0  0  0  0  0  0
   -1.5126    2.1060    4.8707 H   0  0  0  0  0  0
   -2.6968    2.9747    6.9297 H   0  0  0  0  0  0
   -7.3599   -0.5191    4.3949 H   0  0  0  0  0  0
   -5.9331   -1.2778    3.7228 H   0  0  0  0  0  0
   -6.4189   -1.6193    5.3781 H   0  0  0  0  0  0
   -1.0751   -4.8811    6.3669 H   0  0  0  0  0  0
   -2.4834   -5.1156    5.3609 H   0  0  0  0  0  0
   -1.0545   -4.3450    4.6976 H   0  0  0  0  0  0
   -0.2476   -1.7579    8.4507 H   0  0  0  0  0  0
   -1.1572   -3.1930    8.9008 H   0  0  0  0  0  0
    0.0019   -3.2386    7.5872 H   0  0  0  0  0  0
   -4.0838   -1.9904    9.2844 H   0  0  0  0  0  0
   -3.9842   -2.8653   11.5720 H   0  0  0  0  0  0
   -0.8341   -0.1084   12.5143 H   0  0  0  0  0  0
   -0.9103    0.7793   10.2296 H   0  0  0  0  0  0
  1  2  1  0  0  0
  1 70  1  0  0  0
  1 71  1  0  0  0
  1 72  1  0  0  0
  2  3  1  0  0  0
  2  6  2  0  0  0
  3  4  1  0  0  0
  3 73  1  0  0  0
  4  5  1  0  0  0
  4 74  1  0  0  0
  4 75  1  0  0  0
  5  6  1  0  0  0
  6  7  1  0  0  0
  7  8  2  0  0  0
  7 10  1  0  0  0
  8  9  1  0  0  0
  8 76  1  0  0  0
  9 12  2  0  0  0
  9 77  1  0  0  0
 10 11  2  0  0  0
 10 78  1  0  0  0
 11 12  1  0  0  0
 11 79  1  0  0  0
 12 13  1  0  0  0
 13 14  1  0  0  0
 13 80  1  0  0  0
 13 81  1  0  0  0
 14 15  1  0  0  0
 14 82  1  0  0  0
 15 16  2  0  0  0
 15 17  1  0  0  0
 17 18  1  0  0  0
 17 22  1  0  0  0
 17 83  1  0  0  0
 18 19  1  0  0  0
 18 84  1  0  0  0
 18 85  1  0  0  0
 19 20  1  0  0  0
 19 21  1  0  0  0
 19 86  1  0  0  0
 20 87  1  0  0  0
 21 22  1  0  0  0
 21 88  1  0  0  0
 21 89  1  0  0  0
 22 23  1  0  0  0
 23 24  2  0  0  0
 23 25  1  0  0  0
 25 26  1  0  0  0
 25 30  1  0  0  0
 25 90  1  0  0  0
 26 27  1  0  0  0
 26 28  1  0  0  0
 26 29  1  0  0  0
 27 91  1  0  0  0
 27 92  1  0  0  0
 27 93  1  0  0  0
 28 94  1  0  0  0
 28 95  1  0  0  0
 28 96  1  0  0  0
 29 97  1  0  0  0
 29 98  1  0  0  0
 29 99  1  0  0  0
 30 31  1  0  0  0
 30100  1  0  0  0
 31 32  2  0  0  0
 31 33  1  0  0  0
 33 34  1  0  0  0
 33101  1  0  0  0
 33102  1  0  0  0
 34 35  1  0  0  0
 35 36  1  0  0  0
 35103  1  0  0  0
 35104  1  0  0  0
 36 37  1  0  0  0
 36105  1  0  0  0
 36106  1  0  0  0
 37 38  1  0  0  0
 38 39  1  0  0  0
 38107  1  0  0  0
 38108  1  0  0  0
 39 40  1  0  0  0
 39109  1  0  0  0
 39110  1  0  0  0
 40 41  1  0  0  0
 41 42  1  0  0  0
 41111  1  0  0  0
 41112  1  0  0  0
 42 43  1  0  0  0
 42113  1  0  0  0
 42114  1  0  0  0
 43 44  1  0  0  0
 43115  1  0  0  0
 44 45  2  0  0  0
 44 46  1  0  0  0
 46 47  1  0  0  0
 46116  1  0  0  0
 46117  1  0  0  0
 47 48  1  0  0  0
 47 49  1  0  0  0
 47118  1  0  0  0
 48 62  2  0  0  0
 49 50  2  0  0  0
 49 54  1  0  0  0
 50 51  1  0  0  0
 51 52  2  0  0  0
 52 53  1  0  0  0
 52 54  1  0  0  0
 53119  1  0  0  0
 53120  1  0  0  0
 53121  1  0  0  0
 54 55  1  0  0  0
 55 56  1  0  0  0
 55 61  2  0  0  0
 56 57  1  0  0  0
 57 58  1  0  0  0
 57 59  2  0  0  0
 58122  1  0  0  0
 58123  1  0  0  0
 58124  1  0  0  0
 59 60  1  0  0  0
 59 61  1  0  0  0
 60125  1  0  0  0
 60126  1  0  0  0
 60127  1  0  0  0
 61 62  1  0  0  0
 62 63  1  0  0  0
 63 64  2  0  0  0
 63 69  1  0  0  0
 64 65  1  0  0  0
 64128  1  0  0  0
 65 66  2  0  0  0
 65129  1  0  0  0
 66 67  1  0  0  0
 66 68  1  0  0  0
 68 69  2  0  0  0
 68130  1  0  0  0
 69131  1  0  0  0
M  END
> <s_m_entry_id>
13

> <s_m_entry_name>
5t35.1_mol3

> <s_m_source_file>
ligprep_1.maegz

> <i_m_source_file_index>
1

> <i_lp_mmshare_version>
38013

> <i_f3d_flags>
0

> <s_lp_Force_Field>
OPLS3

> <r_lp_Energy>
67.487723911233

> <b_lp_Chiralities_Consistent>
1

> <s_lp_Variant>
ligand-1

> <s_m_job_name>
ligprep_1

> <s_m_subgroup_title>
ligprep_1-out1

> <s_m_subgroupid>
ligprep_1-out1

> <b_m_subgroup_collapsed>
0

$$$$
