0000
                    3D
 Structure written by MMmdl.
104110  0  0  1  0            999 V2000
   69.7109   42.7407   51.3022 C   0  0  0  0  0  0
   69.2327   44.0515   51.1999 C   0  0  0  0  0  0
   74.5500   36.7303   52.9940 C   0  0  0  0  0  0
   75.1217   35.4446   51.0180 C   0  0  0  0  0  0
   69.7542   41.9221   50.1626 C   0  0  0  0  0  0
   74.8584   37.9042   52.3128 C   0  0  0  0  0  0
   75.4271   36.6233   50.3457 C   0  0  0  0  0  0
   74.6690   35.4880   52.3469 C   0  0  0  0  0  0
   68.7935   44.5117   49.9606 C   0  0  0  0  0  0
   68.8240   43.7421   48.8727 C   0  0  0  0  0  0
   73.5027   34.3355   54.3102 C   0  0  0  0  0  0
   72.3094   35.1876   54.4503 C   0  0  0  0  0  0
   69.3105   42.4338   48.9246 C   0  0  0  0  0  0
   75.2924   37.8496   50.9913 C   0  0  0  0  0  0
   71.7741   35.0859   55.7712 C   0  0  0  0  0  0
   73.7607   33.6116   55.5131 C   0  0  0  0  0  0
   75.1476   31.7920   54.6324 C   0  0  0  0  0  0
   75.5229   32.3028   56.7010 C   0  0  0  0  0  0
   74.3588   34.1993   53.0632 C   0  0  0  0  0  0
   68.2550   45.8278   49.6110 C   0  0  0  0  0  0
   68.2913   44.4992   47.7231 C   0  0  0  0  0  0
   66.1867   49.4615   47.0009 C   0  0  0  0  0  0
   68.2010   48.1155   47.5388 C   0  0  0  0  0  0
   74.1166   30.7130   50.9841 C   0  0  0  0  0  0
   70.5691   40.1187   46.3125 C   0  0  0  0  0  0
   65.4092   48.1395   46.8167 C   0  0  0  0  0  0
   65.8661   47.0767   47.7859 C   0  0  0  0  0  0
   74.4984   31.8252   53.2628 C   0  0  2  0  0  0
   67.3260   46.8259   47.4642 C   0  0  2  0  0  0
   71.6909   36.0206   53.3462 C   0  0  0  0  0  0
   70.5356   35.7309   56.3435 C   0  0  0  0  0  0
   75.4595   33.0115   58.0400 C   0  0  0  0  0  0
   74.8837   30.6551   52.3151 C   0  0  0  0  0  0
   70.1136   40.4741   47.7336 C   0  0  0  0  0  0
   72.5839   34.3200   46.7851 C   0  0  0  0  0  0
   71.8390   34.5451   45.4536 C   0  0  0  0  0  0
   73.0501   32.8641   46.9843 C   0  0  0  0  0  0
   71.2550   35.9635   45.2847 C   0  0  0  0  0  0
   73.7114   32.6299   48.3557 C   0  0  0  0  0  0
   72.3047   37.0573   44.9848 C   0  0  0  0  0  0
   74.2104   31.1852   48.5721 C   0  0  0  0  0  0
   71.7190   38.4808   44.8857 C   0  0  0  0  0  0
   76.1013   30.9809   55.0544 N   0  0  0  0  0  0
   76.3403   31.3079   56.4185 N   0  0  0  0  0  0
   74.8192   33.0852   52.6272 N   0  0  0  0  0  0
   74.7617   32.6362   55.6193 N   0  0  0  0  0  0
   67.4932   49.2703   47.3502 N   0  0  0  0  0  0
   67.9547   45.7306   48.2573 N   0  0  0  0  0  0
   74.8360   31.0171   49.8872 N   0  0  0  0  0  0
   71.2089   38.9416   46.1750 N   0  0  0  0  0  0
   68.1012   46.8068   50.3386 O   0  0  0  0  0  0
   68.1649   44.1351   46.5545 O   0  0  0  0  0  0
   65.7012   50.5720   46.8396 O   0  0  0  0  0  0
   69.3988   48.1091   47.7499 O   0  0  0  0  0  0
   72.9029   30.5033   50.9574 O   0  0  0  0  0  0
   70.3578   40.8887   45.3705 O   0  0  0  0  0  0
   69.3431   41.6827   47.7597 O   0  0  0  0  0  0
   72.7490   34.0978   56.7448 S   0  0  0  0  0  0
   75.6710   39.3052   50.1499 Cl  0  0  0  0  0  0
   70.0523   42.3630   52.2531 H   0  0  0  0  0  0
   69.2051   44.6856   52.0764 H   0  0  0  0  0  0
   74.2305   36.7850   54.0228 H   0  0  0  0  0  0
   75.2322   34.4968   50.5104 H   0  0  0  0  0  0
   70.1278   40.9118   50.2403 H   0  0  0  0  0  0
   74.7652   38.8591   52.8107 H   0  0  0  0  0  0
   75.7700   36.5874   49.3234 H   0  0  0  0  0  0
   65.5063   47.8207   45.7763 H   0  0  0  0  0  0
   64.3518   48.3539   46.9722 H   0  0  0  0  0  0
   65.7184   47.3862   48.8215 H   0  0  0  0  0  0
   65.2907   46.1604   47.6525 H   0  0  0  0  0  0
   73.4152   31.7512   53.4024 H   0  0  0  0  0  0
   67.3969   46.5224   46.4174 H   0  0  0  0  0  0
   70.6034   35.9576   53.3803 H   0  0  0  0  0  0
   71.9701   35.6986   52.3433 H   0  0  0  0  0  0
   71.9472   37.0724   53.4569 H   0  0  0  0  0  0
   70.1829   36.5704   55.7432 H   0  0  0  0  0  0
   70.7081   36.1053   57.3503 H   0  0  0  0  0  0
   69.7146   35.0164   56.4070 H   0  0  0  0  0  0
   75.6295   34.0840   57.9302 H   0  0  0  0  0  0
   76.2254   32.6494   58.7280 H   0  0  0  0  0  0
   74.5037   32.8907   58.5461 H   0  0  0  0  0  0
   74.6466   29.7048   52.7916 H   0  0  0  0  0  0
   75.9604   30.6473   52.1403 H   0  0  0  0  0  0
   71.0363   40.5809   48.3056 H   0  0  0  0  0  0
   69.5309   39.6562   48.1591 H   0  0  0  0  0  0
   73.4463   34.9849   46.8411 H   0  0  0  0  0  0
   71.9298   34.6012   47.6115 H   0  0  0  0  0  0
   71.0169   33.8301   45.3936 H   0  0  0  0  0  0
   72.4956   34.3126   44.6132 H   0  0  0  0  0  0
   72.1968   32.1911   46.8806 H   0  0  0  0  0  0
   73.7474   32.5954   46.1890 H   0  0  0  0  0  0
   70.6786   36.2235   46.1733 H   0  0  0  0  0  0
   70.5362   35.9472   44.4636 H   0  0  0  0  0  0
   74.5513   33.3169   48.4692 H   0  0  0  0  0  0
   73.0010   32.8875   49.1440 H   0  0  0  0  0  0
   72.8064   36.8155   44.0471 H   0  0  0  0  0  0
   73.0864   37.0460   45.7458 H   0  0  0  0  0  0
   73.3947   30.4739   48.4208 H   0  0  0  0  0  0
   74.9548   30.9455   47.8124 H   0  0  0  0  0  0
   70.9297   38.5061   44.1306 H   0  0  0  0  0  0
   72.4983   39.1658   44.5529 H   0  0  0  0  0  0
   68.0343   50.1180   47.4515 H   0  0  0  0  0  0
   75.8300   31.1710   49.9578 H   0  0  0  0  0  0
   71.3600   38.3467   46.9779 H   0  0  0  0  0  0
  1  2  1  0  0  0
  1  5  2  0  0  0
  1 60  1  0  0  0
  2  9  2  0  0  0
  2 61  1  0  0  0
  3  6  2  0  0  0
  3  8  1  0  0  0
  3 62  1  0  0  0
  4  7  1  0  0  0
  4  8  2  0  0  0
  4 63  1  0  0  0
  5 13  1  0  0  0
  5 64  1  0  0  0
  6 14  1  0  0  0
  6 65  1  0  0  0
  7 14  2  0  0  0
  7 66  1  0  0  0
  8 19  1  0  0  0
  9 10  1  0  0  0
  9 20  1  0  0  0
 10 13  2  0  0  0
 10 21  1  0  0  0
 11 12  1  0  0  0
 11 16  2  0  0  0
 11 19  1  0  0  0
 12 15  2  0  0  0
 12 30  1  0  0  0
 13 57  1  0  0  0
 14 59  1  0  0  0
 15 31  1  0  0  0
 15 58  1  0  0  0
 16 46  1  0  0  0
 16 58  1  0  0  0
 17 28  1  0  0  0
 17 43  2  0  0  0
 17 46  1  0  0  0
 18 32  1  0  0  0
 18 44  2  0  0  0
 18 46  1  0  0  0
 19 45  2  0  0  0
 20 48  1  0  0  0
 20 51  2  0  0  0
 21 48  1  0  0  0
 21 52  2  0  0  0
 22 26  1  0  0  0
 22 47  1  0  0  0
 22 53  2  0  0  0
 23 29  1  0  0  0
 23 47  1  0  0  0
 23 54  2  0  0  0
 24 33  1  0  0  0
 24 49  1  0  0  0
 24 55  2  0  0  0
 25 34  1  0  0  0
 25 50  1  0  0  0
 25 56  2  0  0  0
 26 27  1  0  0  0
 26 67  1  0  0  0
 26 68  1  0  0  0
 27 29  1  0  0  0
 27 69  1  0  0  0
 27 70  1  0  0  0
 28 33  1  0  0  0
 28 45  1  0  0  0
 28 71  1  0  0  0
 29 48  1  0  0  0
 29 72  1  0  0  0
 30 73  1  0  0  0
 30 74  1  0  0  0
 30 75  1  0  0  0
 31 76  1  0  0  0
 31 77  1  0  0  0
 31 78  1  0  0  0
 32 79  1  0  0  0
 32 80  1  0  0  0
 32 81  1  0  0  0
 33 82  1  0  0  0
 33 83  1  0  0  0
 34 57  1  0  0  0
 34 84  1  0  0  0
 34 85  1  0  0  0
 35 36  1  0  0  0
 35 37  1  0  0  0
 35 86  1  0  0  0
 35 87  1  0  0  0
 36 38  1  0  0  0
 36 88  1  0  0  0
 36 89  1  0  0  0
 37 39  1  0  0  0
 37 90  1  0  0  0
 37 91  1  0  0  0
 38 40  1  0  0  0
 38 92  1  0  0  0
 38 93  1  0  0  0
 39 41  1  0  0  0
 39 94  1  0  0  0
 39 95  1  0  0  0
 40 42  1  0  0  0
 40 96  1  0  0  0
 40 97  1  0  0  0
 41 49  1  0  0  0
 41 98  1  0  0  0
 41 99  1  0  0  0
 42 50  1  0  0  0
 42100  1  0  0  0
 42101  1  0  0  0
 43 44  1  0  0  0
 47102  1  0  0  0
 49103  1  0  0  0
 50104  1  0  0  0
M  END
> <s_m_entry_id>
20

> <s_m_entry_name>
0000.1

> <s_m_Source_Path>
/mnt/home/boqing/Schrodinger_Projects/6BOY

> <s_m_Source_File>
0000.sdf

> <i_m_Source_File_Index>
1

> <s_m_job_name>
glide-dock_SP_0000_h

> <s_i_glide_gridfile>
glide-grid_crystal_ligand

> <i_i_glide_lignum>
1

> <i_i_glide_rotatable_bonds>
18

> <r_i_docking_score>
-14.895566144196

> <r_i_glide_ligand_efficiency>
-0.252467222782982

> <r_i_glide_ligand_efficiency_sa>
-0.982853992083752

> <r_i_glide_ligand_efficiency_ln>
-2.93362014731654

> <r_i_glide_gscore>
-14.895566144196

> <r_i_glide_evdw>
-84.2057952880859

> <r_i_glide_ecoul>
-13.8095293045044

> <r_i_glide_energy>
-98.0153245925903

> <r_i_glide_einternal>
8.55242538452148

> <r_i_glide_emodel>
-179.125624208372

> <r_i_glide_intrahb_reward>
0

> <i_i_glide_confnum>
613

> <i_i_glide_posenum>
12

> <r_i_glide_eff_state_penalty>
0

> <Batch ID>
0

> <Smiles>
Cc1sc2c(c1C)C(c1ccc(Cl)cc1)=N[C@@H](C[100C](=O)[101NH]CCCCCCCCNC(=O)C[100O][101c]1cccc3c1C(=O)N([C@H]1CCC(=O)NC1=O)C3=O)c1nnc(C)n1-2

> <Shape>
0.404

> <Color>
0.202

> <Negative vol penalty>
0

> <chiral flag>
1

> <version>
0

> <r_i_glide_lipo>
-4.92657437737644

> <r_i_glide_hbond>
-0.709506222498301

> <r_i_glide_metal>
0

> <r_i_glide_rewards>
-3.21968125990772

> <r_i_glide_erotb>
0.241914875666457

> <r_i_glide_esite>
0

> <s_m_subgroup_title>
glide-dock_SP_0000_h_pv1

> <s_m_subgroupid>
glide-dock_SP_0000_h_pv1

> <b_m_subgroup_collapsed>
0

$$$$
