ligand
                    3D
 Structure written by MMmdl.
104110  0  0  1  0            999 V2000
   74.5065   33.9146   54.9679 N   0  0  0  0  0  0
   76.1022   32.1503   55.7565 C   0  0  0  0  0  0
   69.2357   41.7374   47.6640 O   0  0  0  0  0  0
   75.3115   32.9063   54.7073 C   0  0  0  0  0  0
   70.0695   35.9133   45.5955 C   0  0  0  0  0  0
   71.5690   36.2759   45.5147 C   0  0  0  0  0  0
   71.8818   37.4246   44.5318 C   0  0  0  0  0  0
   71.9486   38.8278   45.1670 C   0  0  0  0  0  0
   70.7498   40.0100   46.9604 C   0  0  0  0  0  0
   69.3966   40.3194   47.6096 C   0  0  0  0  0  0
   69.2585   42.4512   48.8491 C   0  0  0  0  0  0
   69.7430   41.9070   50.0541 C   0  0  0  0  0  0
   69.7349   42.6967   51.2177 C   0  0  0  0  0  0
   69.2539   44.0122   51.1620 C   0  0  0  0  0  0
   74.5108   33.5436   52.7985 C   0  0  0  0  0  0
   68.7852   44.5056   49.9453 C   0  0  0  0  0  0
   68.2403   45.8339   49.6349 C   0  0  0  0  0  0
   67.2770   46.8710   47.5182 C   0  0  2  0  0  0
   68.1723   48.1464   47.5515 C   0  0  0  0  0  0
   66.1708   49.5062   46.9902 C   0  0  0  0  0  0
   65.3670   48.1913   46.8728 C   0  0  0  0  0  0
   65.8267   47.1463   47.8635 C   0  0  0  0  0  0
   68.7865   43.7606   48.8416 C   0  0  0  0  0  0
   68.2412   44.5440   47.7225 C   0  0  0  0  0  0
   76.4202   33.0339   50.5315 C   0  0  0  0  0  0
   74.1970   33.5485   51.3205 C   0  0  2  0  0  0
   77.6181   33.3871   49.6804 C   0  0  0  0  0  0
   77.4704   34.3033   48.6251 C   0  0  0  0  0  0
   78.5690   34.6480   47.8402 C   0  0  0  0  0  0
   79.8175   34.0865   48.1013 C   0  0  0  0  0  0
   79.9759   33.1894   49.1513 C   0  0  0  0  0  0
   78.8883   32.8440   49.9479 C   0  0  0  0  0  0
   76.5548   31.7599   51.3514 C   0  0  0  0  0  0
   76.0703   31.6338   52.6929 C   0  0  0  0  0  0
   77.1763   29.5252   51.9398 C   0  0  0  0  0  0
   77.6957   28.1035   51.9153 C   0  0  0  0  0  0
   73.3757   32.2912   50.8729 C   0  0  0  0  0  0
   77.1692   30.4919   50.8891 C   0  0  0  0  0  0
   77.6972   30.2205   49.4863 C   0  0  0  0  0  0
   72.7163   32.3608   49.4880 C   0  0  0  0  0  0
   71.0203   31.4250   47.9681 C   0  0  0  0  0  0
   70.0309   32.6002   47.7679 C   0  0  0  0  0  0
   70.4664   33.5942   46.6735 C   0  0  0  0  0  0
   69.7104   34.9351   46.7313 C   0  0  0  0  0  0
   73.9948   34.3404   53.7159 N   0  0  0  0  0  0
   71.7458   31.4596   49.2422 N   0  0  0  0  0  0
   70.7291   39.1917   45.8901 N   0  0  0  0  0  0
   67.9139   45.7638   48.2839 N   0  0  0  0  0  0
   67.4780   49.3059   47.3358 N   0  0  0  0  0  0
   75.3866   33.7930   50.5418 N   0  0  0  0  0  0
   75.3554   32.6413   53.3646 N   0  0  0  0  0  0
   65.7012   50.6167   46.7863 O   0  0  0  0  0  0
   69.3703   48.1277   47.7503 O   0  0  0  0  0  0
   68.1013   46.7972   50.3844 O   0  0  0  0  0  0
   68.1012   44.2069   46.5504 O   0  0  0  0  0  0
   71.7847   40.5052   47.4125 O   0  0  0  0  0  0
   73.0754   33.2057   48.6669 O   0  0  0  0  0  0
   76.4882   30.1586   53.3511 S   0  0  0  0  0  0
   81.1741   34.5073   47.1257 Cl  0  0  0  0  0  0
   77.1633   32.1065   55.5115 H   0  0  0  0  0  0
   75.7331   31.1359   55.9015 H   0  0  0  0  0  0
   76.0378   32.6396   56.7288 H   0  0  0  0  0  0
   69.4768   36.8171   45.7325 H   0  0  0  0  0  0
   69.7495   35.4933   44.6413 H   0  0  0  0  0  0
   72.1176   35.3909   45.1897 H   0  0  0  0  0  0
   71.9594   36.5154   46.5052 H   0  0  0  0  0  0
   71.1665   37.4210   43.7070 H   0  0  0  0  0  0
   72.8501   37.2284   44.0698 H   0  0  0  0  0  0
   72.1016   39.5738   44.3859 H   0  0  0  0  0  0
   72.8281   38.8672   45.8156 H   0  0  0  0  0  0
   69.2883   39.7917   48.5547 H   0  0  0  0  0  0
   68.5910   39.9366   46.9806 H   0  0  0  0  0  0
   70.1211   40.8991   50.0922 H   0  0  0  0  0  0
   70.1024   42.2935   52.1491 H   0  0  0  0  0  0
   69.2511   44.6239   52.0542 H   0  0  0  0  0  0
   67.3136   46.5670   46.4701 H   0  0  0  0  0  0
   65.4338   47.8368   45.8427 H   0  0  0  0  0  0
   64.3171   48.4267   47.0450 H   0  0  0  0  0  0
   65.7099   47.4844   48.8938 H   0  0  0  0  0  0
   65.2332   46.2386   47.7605 H   0  0  0  0  0  0
   73.5533   34.4131   51.1459 H   0  0  0  0  0  0
   76.5043   34.7415   48.4153 H   0  0  0  0  0  0
   78.4528   35.3502   47.0268 H   0  0  0  0  0  0
   80.9466   32.7625   49.3502 H   0  0  0  0  0  0
   79.0323   32.1623   50.7714 H   0  0  0  0  0  0
   78.1439   27.8352   50.9590 H   0  0  0  0  0  0
   76.9013   27.3816   52.1044 H   0  0  0  0  0  0
   78.4583   27.9432   52.6773 H   0  0  0  0  0  0
   72.5737   32.1332   51.5954 H   0  0  0  0  0  0
   73.9759   31.3844   50.9014 H   0  0  0  0  0  0
   77.3727   29.2411   49.1381 H   0  0  0  0  0  0
   78.7852   30.2085   49.4439 H   0  0  0  0  0  0
   77.3275   30.9169   48.7347 H   0  0  0  0  0  0
   70.4537   30.4921   47.9655 H   0  0  0  0  0  0
   71.7145   31.3338   47.1285 H   0  0  0  0  0  0
   69.8873   33.1277   48.7129 H   0  0  0  0  0  0
   69.0451   32.2079   47.5106 H   0  0  0  0  0  0
   70.3359   33.1337   45.6932 H   0  0  0  0  0  0
   71.5328   33.7936   46.7687 H   0  0  0  0  0  0
   69.9037   35.4160   47.6925 H   0  0  0  0  0  0
   68.6370   34.7443   46.7030 H   0  0  0  0  0  0
   71.4919   30.7813   49.9463 H   0  0  0  0  0  0
   69.8554   38.8216   45.5490 H   0  0  0  0  0  0
   68.0330   50.1484   47.4024 H   0  0  0  0  0  0
  1  4  2  0  0  0
  1 45  1  0  0  0
  2  4  1  0  0  0
  2 60  1  0  0  0
  2 61  1  0  0  0
  2 62  1  0  0  0
  3 10  1  0  0  0
  3 11  1  0  0  0
  4 51  1  0  0  0
  5  6  1  0  0  0
  5 44  1  0  0  0
  5 63  1  0  0  0
  5 64  1  0  0  0
  6  7  1  0  0  0
  6 65  1  0  0  0
  6 66  1  0  0  0
  7  8  1  0  0  0
  7 67  1  0  0  0
  7 68  1  0  0  0
  8 47  1  0  0  0
  8 69  1  0  0  0
  8 70  1  0  0  0
  9 10  1  0  0  0
  9 47  1  0  0  0
  9 56  2  0  0  0
 10 71  1  0  0  0
 10 72  1  0  0  0
 11 12  2  0  0  0
 11 23  1  0  0  0
 12 13  1  0  0  0
 12 73  1  0  0  0
 13 14  2  0  0  0
 13 74  1  0  0  0
 14 16  1  0  0  0
 14 75  1  0  0  0
 15 26  1  0  0  0
 15 45  2  0  0  0
 15 51  1  0  0  0
 16 17  1  0  0  0
 16 23  2  0  0  0
 17 48  1  0  0  0
 17 54  2  0  0  0
 18 19  1  0  0  0
 18 22  1  0  0  0
 18 48  1  0  0  0
 18 76  1  0  0  0
 19 49  1  0  0  0
 19 53  2  0  0  0
 20 21  1  0  0  0
 20 49  1  0  0  0
 20 52  2  0  0  0
 21 22  1  0  0  0
 21 77  1  0  0  0
 21 78  1  0  0  0
 22 79  1  0  0  0
 22 80  1  0  0  0
 23 24  1  0  0  0
 24 48  1  0  0  0
 24 55  2  0  0  0
 25 27  1  0  0  0
 25 33  1  0  0  0
 25 50  2  0  0  0
 26 37  1  0  0  0
 26 50  1  0  0  0
 26 81  1  0  0  0
 27 28  1  0  0  0
 27 32  2  0  0  0
 28 29  2  0  0  0
 28 82  1  0  0  0
 29 30  1  0  0  0
 29 83  1  0  0  0
 30 31  2  0  0  0
 30 59  1  0  0  0
 31 32  1  0  0  0
 31 84  1  0  0  0
 32 85  1  0  0  0
 33 34  2  0  0  0
 33 38  1  0  0  0
 34 51  1  0  0  0
 34 58  1  0  0  0
 35 36  1  0  0  0
 35 38  2  0  0  0
 35 58  1  0  0  0
 36 86  1  0  0  0
 36 87  1  0  0  0
 36 88  1  0  0  0
 37 40  1  0  0  0
 37 89  1  0  0  0
 37 90  1  0  0  0
 38 39  1  0  0  0
 39 91  1  0  0  0
 39 92  1  0  0  0
 39 93  1  0  0  0
 40 46  1  0  0  0
 40 57  2  0  0  0
 41 42  1  0  0  0
 41 46  1  0  0  0
 41 94  1  0  0  0
 41 95  1  0  0  0
 42 43  1  0  0  0
 42 96  1  0  0  0
 42 97  1  0  0  0
 43 44  1  0  0  0
 43 98  1  0  0  0
 43 99  1  0  0  0
 44100  1  0  0  0
 44101  1  0  0  0
 46102  1  0  0  0
 47103  1  0  0  0
 49104  1  0  0  0
M  END
> <s_m_entry_id>
28

> <s_m_entry_name>
6boy.1_ligand

> <s_m_source_file>
ligprep_1.maegz

> <i_m_source_file_index>
1

> <i_lp_mmshare_version>
38013

> <i_f3d_flags>
0

> <s_lp_Force_Field>
OPLS3

> <r_lp_Energy>
61.4442804358626

> <b_lp_Chiralities_Consistent>
1

> <s_lp_Variant>
ligand-1

> <s_m_job_name>
glide-dock_SP_ligprep_ligand_2

> <s_i_glide_gridfile>
glide-grid_crystal_ligand

> <i_i_glide_lignum>
1

> <i_i_glide_rotatable_bonds>
18

> <r_i_docking_score>
-11.6942240022602

> <r_i_glide_ligand_efficiency>
-0.198207186478986

> <r_i_glide_ligand_efficiency_sa>
-0.771619865514245

> <r_i_glide_ligand_efficiency_ln>
-2.30312905250873

> <r_i_glide_gscore>
-11.6942240022602

> <r_i_glide_evdw>
-70.735466003418

> <r_i_glide_ecoul>
-12.7189321517944

> <r_i_glide_energy>
-83.4543981552124

> <r_i_glide_einternal>
16.4975070953369

> <r_i_glide_emodel>
-134.95697130514

> <r_i_glide_intrahb_reward>
0

> <i_i_glide_confnum>
104

> <i_i_glide_posenum>
123

> <r_i_glide_eff_state_penalty>
0

> <r_i_glide_lipo>
-2.79682969304

> <r_i_glide_hbond>
-0.580244927433397

> <r_i_glide_metal>
0

> <r_i_glide_rewards>
-3.11445113451316

> <r_i_glide_erotb>
0.241914875666457

> <r_i_glide_esite>
0

> <s_m_subgroup_title>
glide-dock_SP_ligprep_ligand_2_pv1

> <s_m_subgroupid>
glide-dock_SP_ligprep_ligand_2_pv1

> <b_m_subgroup_collapsed>
0

$$$$
