0000
                    3D
 Structure written by MMmdl.
172180  0  0  1  0            999 V2000
   26.5343   46.1426   18.6138 C   0  0  0  0  0  0
   26.6374   45.0591   18.0625 C   0  0  0  0  0  0
   14.8445   50.2159   19.6065 C   0  0  0  0  0  0
   15.3929   50.5687   20.8442 C   0  0  0  0  0  0
   18.9607   57.2412   13.8954 C   0  0  0  0  0  0
   26.2618   48.5617   18.2698 C   0  0  0  0  0  0
   26.3809   47.7070   20.5260 C   0  0  0  0  0  0
   29.1873   46.1328    3.5493 C   0  0  0  0  0  0
   28.1211   45.4028    5.5989 C   0  0  0  0  0  0
   18.3656   56.6260   14.9796 C   0  0  0  0  0  0
   20.2396   57.7769   14.0103 C   0  0  0  0  0  0
   30.4136   45.6929    4.0387 C   0  0  0  0  0  0
   29.3492   44.9630    6.0793 C   0  0  0  0  0  0
   15.0572   50.9935   18.4628 C   0  0  0  0  0  0
   26.1327   49.8526   18.7679 C   0  0  0  0  0  0
   26.2486   49.0010   21.0265 C   0  0  0  0  0  0
   16.1831   51.7084   20.9959 C   0  0  0  0  0  0
   24.3474   46.9568    3.5233 C   0  0  0  0  0  0
   26.3888   47.4899   19.1467 C   0  0  0  0  0  0
   28.0269   45.9912    4.3259 C   0  0  0  0  0  0
   19.0282   56.5637   16.2120 C   0  0  0  0  0  0
   20.9457   57.7235   15.2195 C   0  0  0  0  0  0
   20.3269   57.1318   16.3493 C   0  0  0  0  0  0
   30.4956   45.1086    5.3029 C   0  0  0  0  0  0
   15.8449   52.1445   18.5893 C   0  0  0  0  0  0
   26.1280   50.0805   20.1533 C   0  0  0  0  0  0
   16.4083   52.4893   19.8599 C   0  0  0  0  0  0
   26.6798   46.4598    3.8003 C   0  0  0  0  0  0
   23.6370   55.6127   20.5708 C   0  0  0  0  0  0
   26.3196   47.1174    2.5847 C   0  0  0  0  0  0
   24.9709   55.6108   20.0495 C   0  0  0  0  0  0
   23.2663   56.6441   18.6957 C   0  0  0  0  0  0
   16.9334   53.9416   17.9647 C   0  0  0  0  0  0
   18.3739   55.8396   17.3940 C   0  0  0  0  0  0
   23.1889   55.0014   21.8339 C   0  0  0  0  0  0
   32.3616   46.5171    7.3293 C   0  0  0  0  0  0
   34.6832   48.2924    8.4276 C   0  0  0  0  0  0
   37.3412   49.0021   10.0539 C   0  0  0  0  0  0
   22.3727   58.2563   15.3379 C   0  0  0  0  0  0
   21.0897   57.0949   17.6646 C   0  0  0  0  0  0
   31.2108   47.3894    9.4166 C   0  0  0  0  0  0
   23.0207   58.1684   16.7404 C   0  0  0  0  0  0
   32.8265   49.0407    9.9552 C   0  0  0  0  0  0
   32.5488   46.9622    8.7926 C   0  0  2  0  0  0
   31.6906   48.2340   10.5821 C   0  0  2  0  0  0
   27.1894   47.5586    1.4248 C   0  0  0  0  0  0
   35.9867   51.9593    7.6104 C   0  0  0  0  0  0
   35.7837   50.0317    6.0303 C   0  0  0  0  0  0
   33.7413   50.9883    7.1426 C   0  0  0  0  0  0
   26.7395   43.7712   17.3506 C   0  0  0  0  0  0
   31.8467   44.6325    5.8395 C   0  0  0  0  0  0
   26.2504   54.9602   20.5721 C   0  0  0  0  0  0
   38.8465   48.7168   10.1028 C   0  0  0  0  0  0
   26.5978   53.6320   19.8451 C   0  0  0  0  0  0
   39.2475   47.4517   10.8856 C   0  0  0  0  0  0
   25.5459   52.4900   19.9195 C   0  0  0  0  0  0
   29.0523   43.2674   17.9018 C   0  0  0  0  0  0
   30.2194   42.4215   17.3757 C   0  0  0  0  0  0
   39.5192   46.5299   13.0667 C   0  0  0  0  0  0
   39.4565   46.8724   14.5616 C   0  0  0  0  0  0
   32.1311   42.4228   15.9655 C   0  0  0  0  0  0
   33.0238   43.3465   15.1133 C   0  0  0  0  0  0
   37.9568   47.2498   16.3679 C   0  0  0  0  0  0
   36.4771   47.2054   16.7689 C   0  0  0  0  0  0
   34.1161   44.3703   17.0154 C   0  0  0  0  0  0
   34.7665   45.6943   17.4355 C   0  0  0  0  0  0
   35.4264   49.6519    8.5823 C   0  0  2  0  0  0
   35.2349   50.6271    7.3538 C   0  0  0  0  0  0
   25.0197   47.3644    2.4861 N   0  0  0  0  0  0
   16.1405   53.0018   17.5704 N   0  0  0  0  0  0
   22.7422   56.2008   19.7942 N   0  0  0  0  0  0
   22.5430   57.0895   17.6179 N   0  0  0  0  0  0
   33.4481   48.1280    8.9743 N   0  0  0  0  0  0
   17.4995   54.8577   17.0396 N   0  0  0  0  0  0
   32.2062   45.1926    7.1464 N   0  0  0  0  0  0
   36.8392   49.3846    8.8669 N   0  0  0  0  0  0
   22.0498   55.3294   22.2687 O   0  5  0  0  0  0
   18.6599   56.1333   18.5571 O   0  0  0  0  0  0
   23.9818   54.2028   22.3701 O   0  0  0  0  0  0
   32.2882   47.3647    6.4365 O   0  0  0  0  0  0
   35.2466   47.4114    7.7721 O   0  0  0  0  0  0
   36.6498   48.8893   11.0663 O   0  0  0  0  0  0
   32.1325   47.4004   11.6432 O   0  0  0  0  0  0
   26.0213   51.3642   20.6744 O   0  0  0  0  0  0
   28.0531   43.4365   16.8963 O   0  0  0  0  0  0
   39.0744   47.6402   12.2870 O   0  0  0  0  0  0
   30.9507   43.1142   16.3699 O   0  0  0  0  0  0
   38.1026   46.9148   14.9919 O   0  0  0  0  0  0
   33.4267   44.5446   15.7796 O   0  0  0  0  0  0
   35.9849   45.8739   16.7231 O   0  0  0  0  0  0
   25.2342   46.2030    4.7693 S   0  0  0  0  0  0
   17.3456   53.9667   19.6704 S   0  0  0  0  0  0
   24.9548   56.5882   18.5938 S   0  0  0  0  0  0
   14.2424   49.3231   19.5401 H   0  0  0  0  0  0
   15.1987   49.9423   21.7059 H   0  0  0  0  0  0
   18.4408   57.2909   12.9479 H   0  0  0  0  0  0
   26.2749   48.3961   17.2029 H   0  0  0  0  0  0
   26.4798   46.8789   21.2095 H   0  0  0  0  0  0
   29.1373   46.5750    2.5749 H   0  0  0  0  0  0
   27.2403   45.2871    6.2095 H   0  0  0  0  0  0
   17.3749   56.2021   14.8711 H   0  0  0  0  0  0
   20.6968   58.2319   13.1436 H   0  0  0  0  0  0
   31.3037   45.8045    3.4404 H   0  0  0  0  0  0
   29.4120   44.5080    7.0595 H   0  0  0  0  0  0
   14.6293   50.7096   17.5173 H   0  0  0  0  0  0
   26.0457   50.6647   18.0821 H   0  0  0  0  0  0
   26.2482   49.1682   22.0946 H   0  0  0  0  0  0
   16.6067   51.9710   21.9541 H   0  0  0  0  0  0
   23.2780   47.0821    3.6109 H   0  0  0  0  0  0
   22.4662   59.2747   14.9562 H   0  0  0  0  0  0
   22.9781   57.6507   14.6632 H   0  0  0  0  0  0
   20.8990   56.1109   18.0909 H   0  0  0  0  0  0
   20.6799   57.8034   18.3701 H   0  0  0  0  0  0
   30.6013   46.5269    9.6985 H   0  0  0  0  0  0
   30.6448   47.9940    8.7048 H   0  0  0  0  0  0
   24.1060   58.1260   16.6074 H   0  0  0  0  0  0
   22.8401   59.0973   17.2752 H   0  0  0  0  0  0
   33.5150   49.4012   10.7212 H   0  0  0  0  0  0
   32.4266   49.9180    9.4435 H   0  0  0  0  0  0
   32.9325   46.1160    9.3669 H   0  0  0  0  0  0
   30.8989   48.8969   10.9430 H   0  0  0  0  0  0
   26.6258   48.1013    0.6666 H   0  0  0  0  0  0
   27.6538   46.7167    0.9085 H   0  0  0  0  0  0
   27.9758   48.2393    1.7513 H   0  0  0  0  0  0
   35.8711   52.6539    6.7787 H   0  0  0  0  0  0
   37.0575   51.8100    7.7480 H   0  0  0  0  0  0
   35.6084   52.4656    8.5001 H   0  0  0  0  0  0
   35.7023   50.7396    5.2054 H   0  0  0  0  0  0
   35.2379   49.1365    5.7246 H   0  0  0  0  0  0
   36.8374   49.7594    6.1106 H   0  0  0  0  0  0
   33.6084   51.6786    6.3085 H   0  0  0  0  0  0
   33.3179   51.4714    8.0251 H   0  0  0  0  0  0
   33.1309   50.1115    6.9187 H   0  0  0  0  0  0
   26.3497   42.9815   17.9967 H   0  0  0  0  0  0
   26.0746   43.8245   16.4829 H   0  0  0  0  0  0
   32.6515   44.8152    5.1225 H   0  0  0  0  0  0
   31.7872   43.5495    5.9478 H   0  0  0  0  0  0
   27.0770   55.6523   20.4451 H   0  0  0  0  0  0
   26.2197   54.7818   21.6482 H   0  0  0  0  0  0
   39.3287   49.5882   10.5492 H   0  0  0  0  0  0
   39.2439   48.6409    9.0918 H   0  0  0  0  0  0
   26.8077   53.8477   18.7974 H   0  0  0  0  0  0
   27.5459   53.2742   20.2427 H   0  0  0  0  0  0
   40.2954   47.2321   10.6755 H   0  0  0  0  0  0
   38.6706   46.5916   10.5448 H   0  0  0  0  0  0
   24.6551   52.8321   20.4398 H   0  0  0  0  0  0
   25.1662   52.2637   18.9284 H   0  0  0  0  0  0
   29.4188   44.2445   18.2171 H   0  0  0  0  0  0
   28.6308   42.7807   18.7801 H   0  0  0  0  0  0
   30.8779   42.1987   18.2204 H   0  0  0  0  0  0
   29.8463   41.4701   16.9876 H   0  0  0  0  0  0
   40.5496   46.2753   12.8083 H   0  0  0  0  0  0
   38.9065   45.6494   12.8575 H   0  0  0  0  0  0
   39.9459   47.8291   14.7414 H   0  0  0  0  0  0
   40.0028   46.1180   15.1276 H   0  0  0  0  0  0
   32.6936   42.0799   16.8355 H   0  0  0  0  0  0
   31.8669   41.5295   15.3998 H   0  0  0  0  0  0
   33.9100   42.8042   14.7790 H   0  0  0  0  0  0
   32.4876   43.6434   14.2104 H   0  0  0  0  0  0
   38.3532   48.2511   16.5452 H   0  0  0  0  0  0
   38.5256   46.5599   16.9954 H   0  0  0  0  0  0
   35.8812   47.8015   16.0786 H   0  0  0  0  0  0
   36.3643   47.6376   17.7646 H   0  0  0  0  0  0
   33.4081   44.0623   17.7868 H   0  0  0  0  0  0
   34.8791   43.5898   16.9401 H   0  0  0  0  0  0
   34.0674   46.5138   17.2599 H   0  0  0  0  0  0
   34.9778   45.6791   18.5049 H   0  0  0  0  0  0
   35.0458   50.1783    9.4566 H   0  0  0  0  0  0
   17.2873   54.7245   16.0638 H   0  0  0  0  0  0
   32.3265   44.5538    7.9194 H   0  0  0  0  0  0
   37.4531   49.4384    8.0675 H   0  0  0  0  0  0
   31.3943   46.8417   11.9114 H   0  0  0  0  0  0
  1  2  3  0  0  0
  1 19  1  0  0  0
  2 50  1  0  0  0
  3  4  1  0  0  0
  3 14  2  0  0  0
  3 94  1  0  0  0
  4 17  2  0  0  0
  4 95  1  0  0  0
  5 10  1  0  0  0
  5 11  2  0  0  0
  5 96  1  0  0  0
  6 15  2  0  0  0
  6 19  1  0  0  0
  6 97  1  0  0  0
  7 16  1  0  0  0
  7 19  2  0  0  0
  7 98  1  0  0  0
  8 12  2  0  0  0
  8 20  1  0  0  0
  8 99  1  0  0  0
  9 13  1  0  0  0
  9 20  2  0  0  0
  9100  1  0  0  0
 10 21  2  0  0  0
 10101  1  0  0  0
 11 22  1  0  0  0
 11102  1  0  0  0
 12 24  1  0  0  0
 12103  1  0  0  0
 13 24  2  0  0  0
 13104  1  0  0  0
 14 25  1  0  0  0
 14105  1  0  0  0
 15 26  1  0  0  0
 15106  1  0  0  0
 16 26  2  0  0  0
 16107  1  0  0  0
 17 27  1  0  0  0
 17108  1  0  0  0
 18 69  2  0  0  0
 18 91  1  0  0  0
 18109  1  0  0  0
 20 28  1  0  0  0
 21 23  1  0  0  0
 21 34  1  0  0  0
 22 23  2  0  0  0
 22 39  1  0  0  0
 23 40  1  0  0  0
 24 51  1  0  0  0
 25 27  2  0  0  0
 25 70  1  0  0  0
 26 84  1  0  0  0
 27 92  1  0  0  0
 28 30  2  0  0  0
 28 91  1  0  0  0
 29 31  2  0  0  0
 29 35  1  0  0  0
 29 71  1  0  0  0
 30 46  1  0  0  0
 30 69  1  0  0  0
 31 52  1  0  0  0
 31 93  1  0  0  0
 32 71  2  0  0  0
 32 72  1  0  0  0
 32 93  1  0  0  0
 33 70  2  0  0  0
 33 74  1  0  0  0
 33 92  1  0  0  0
 34 74  1  0  0  0
 34 78  2  0  0  0
 35 77  1  0  0  0
 35 79  2  0  0  0
 36 44  1  0  0  0
 36 75  1  0  0  0
 36 80  2  0  0  0
 37 67  1  0  0  0
 37 73  1  0  0  0
 37 81  2  0  0  0
 38 53  1  0  0  0
 38 76  1  0  0  0
 38 82  2  0  0  0
 39 42  1  0  0  0
 39110  1  0  0  0
 39111  1  0  0  0
 40 72  1  0  0  0
 40112  1  0  0  0
 40113  1  0  0  0
 41 44  1  0  0  0
 41 45  1  0  0  0
 41114  1  0  0  0
 41115  1  0  0  0
 42 72  1  0  0  0
 42116  1  0  0  0
 42117  1  0  0  0
 43 45  1  0  0  0
 43 73  1  0  0  0
 43118  1  0  0  0
 43119  1  0  0  0
 44 73  1  0  0  0
 44120  1  0  0  0
 45 83  1  0  0  0
 45121  1  0  0  0
 46122  1  0  0  0
 46123  1  0  0  0
 46124  1  0  0  0
 47 68  1  0  0  0
 47125  1  0  0  0
 47126  1  0  0  0
 47127  1  0  0  0
 48 68  1  0  0  0
 48128  1  0  0  0
 48129  1  0  0  0
 48130  1  0  0  0
 49 68  1  0  0  0
 49131  1  0  0  0
 49132  1  0  0  0
 49133  1  0  0  0
 50 85  1  0  0  0
 50134  1  0  0  0
 50135  1  0  0  0
 51 75  1  0  0  0
 51136  1  0  0  0
 51137  1  0  0  0
 52 54  1  0  0  0
 52138  1  0  0  0
 52139  1  0  0  0
 53 55  1  0  0  0
 53140  1  0  0  0
 53141  1  0  0  0
 54 56  1  0  0  0
 54142  1  0  0  0
 54143  1  0  0  0
 55 86  1  0  0  0
 55144  1  0  0  0
 55145  1  0  0  0
 56 84  1  0  0  0
 56146  1  0  0  0
 56147  1  0  0  0
 57 58  1  0  0  0
 57 85  1  0  0  0
 57148  1  0  0  0
 57149  1  0  0  0
 58 87  1  0  0  0
 58150  1  0  0  0
 58151  1  0  0  0
 59 60  1  0  0  0
 59 86  1  0  0  0
 59152  1  0  0  0
 59153  1  0  0  0
 60 88  1  0  0  0
 60154  1  0  0  0
 60155  1  0  0  0
 61 62  1  0  0  0
 61 87  1  0  0  0
 61156  1  0  0  0
 61157  1  0  0  0
 62 89  1  0  0  0
 62158  1  0  0  0
 62159  1  0  0  0
 63 64  1  0  0  0
 63 88  1  0  0  0
 63160  1  0  0  0
 63161  1  0  0  0
 64 90  1  0  0  0
 64162  1  0  0  0
 64163  1  0  0  0
 65 66  1  0  0  0
 65 89  1  0  0  0
 65164  1  0  0  0
 65165  1  0  0  0
 66 90  1  0  0  0
 66166  1  0  0  0
 66167  1  0  0  0
 67 68  1  0  0  0
 67 76  1  0  0  0
 67168  1  0  0  0
 74169  1  0  0  0
 75170  1  0  0  0
 76171  1  0  0  0
 83172  1  0  0  0
M  CHG  1  77  -1
M  END
> <s_m_entry_id>
28

> <s_m_entry_name>
0000.1

> <s_m_Source_Path>
/mnt/home/boqing/Schrodinger_Projects/6ZHC

> <s_m_Source_File>
0000.sdf

> <i_m_Source_File_Index>
1

> <s_m_job_name>
glide-dock_SP_0000_h

> <s_i_glide_gridfile>
glide-grid_crystal_ligand

> <i_i_glide_lignum>
1

> <i_i_glide_rotatable_bonds>
42

> <r_i_docking_score>
-14.5349760443271

> <r_i_glide_ligand_efficiency>
-0.156290064992765

> <r_i_glide_ligand_efficiency_sa>
-0.708096347098838

> <r_i_glide_ligand_efficiency_ln>
-2.62715131690168

> <r_i_glide_gscore>
-14.5349760443271

> <r_i_glide_evdw>
-83.8814468383789

> <r_i_glide_ecoul>
-19.3539371490479

> <r_i_glide_energy>
-103.235383987427

> <r_i_glide_einternal>
44.2863616943359

> <r_i_glide_emodel>
-160.587102334715

> <r_i_glide_intrahb_reward>
0

> <i_i_glide_confnum>
80

> <i_i_glide_posenum>
302

> <r_i_glide_eff_state_penalty>
0

> <chiral flag>
1

> <version>
0

> <Batch ID>
0

> <Smiles>
Cc1ncsc1-c1ccc(CNC(=O)[C@@H]2C[C@@H](O)CN2C(=O)[C@@H](N[101C](=O)[100CH2]COCCOCCOCCOCCOCCO[101CH2][100C]#Cc2ccc(OCCCc3sc(N4CCc5cccc(C(=O)Nc6nc7ccccc7s6)c5C4)nc3C(=O)[O-])cc2)C(C)(C)C)cc1

> <Shape>
0.242

> <Color>
0.215

> <Negative vol penalty>
0

> <r_i_glide_lipo>
-5.53169384979909

> <r_i_glide_hbond>
-1.13403176034584

> <r_i_glide_metal>
0

> <r_i_glide_rewards>
-0.924134527673617

> <r_i_glide_erotb>
0.289503429711959

> <r_i_glide_esite>
-0.137456421944414

> <s_m_subgroup_title>
glide-dock_SP_0000_h_pv1

> <s_m_subgroupid>
glide-dock_SP_0000_h_pv1

> <b_m_subgroup_collapsed>
0

$$$$
