ligand
                    3D
 Structure written by MMmdl.
173181  0  0  1  0            999 V2000
   -9.5236    1.8803  -20.4256 C   0  0  0  0  0  0
   -8.3514    1.3014  -16.7693 C   0  0  0  0  0  0
   -9.3292    1.5433  -15.7998 C   0  0  0  0  0  0
   -9.0811    1.2345  -14.4654 C   0  0  0  0  0  0
   -6.8779    0.4334  -15.0610 C   0  0  0  0  0  0
   -6.0739    3.4259  -10.9040 C   0  0  1  0  0  0
   -6.5391    4.7611  -11.5014 C   0  0  0  0  0  0
   -3.9614    2.7336   -9.7138 C   0  0  0  0  0  0
   -2.5144    3.0825   -9.2571 C   0  0  2  0  0  0
    0.0036    2.9405   -9.6647 C   0  0  0  0  0  0
   -5.3046    2.0999  -12.7570 O   0  0  0  0  0  0
   -6.1798    2.2556  -11.9041 C   0  0  0  0  0  0
   -7.2697    1.4812  -11.7782 N   0  0  0  0  0  0
   -7.5889    0.3370  -12.6312 C   0  0  0  0  0  0
   -7.8509    0.6888  -14.0921 C   0  0  0  0  0  0
   -7.1260    0.7445  -16.3947 C   0  0  0  0  0  0
   -8.6031    1.6390  -18.1985 C   0  0  0  0  0  0
   -7.8000    2.2807  -19.1529 C   0  0  0  0  0  0
   -6.4148    2.8686  -18.9831 C   0  0  0  0  0  0
   -8.3259    2.3977  -20.3596 N   0  0  0  0  0  0
  -10.1108    1.1887  -18.9558 S   0  0  0  0  0  0
   -5.2292    5.4623  -11.8260 C   0  0  1  0  0  0
   -5.3665    6.8646  -11.9140 O   0  0  0  0  0  0
   -4.2953    5.0254  -10.6982 C   0  0  0  0  0  0
   -4.6869    3.6365  -10.4281 N   0  0  0  0  0  0
   -4.3993    1.6215   -9.4091 O   0  0  0  0  0  0
   -1.3841    2.4660  -10.1701 C   0  0  0  0  0  0
   -1.5203    2.9346  -11.6429 C   0  0  0  0  0  0
   -1.3891    0.9138  -10.1466 C   0  0  0  0  0  0
   -2.3561    2.7144   -7.8420 N   0  0  0  0  0  0
   -2.8894    3.3789   -6.8015 C   0  0  0  0  0  0
   -3.5401    4.4173   -6.9270 O   0  0  0  0  0  0
   -2.6718    2.7693   -5.4115 C   0  0  0  0  0  0
   -2.0802    3.7626   -4.3951 C   0  0  0  0  0  0
   -2.1396    3.1771   -3.1018 O   0  0  0  0  0  0
   -1.5842    3.9898   -2.0758 C   0  0  0  0  0  0
   -1.8347    3.3298   -0.7137 C   0  0  0  0  0  0
   -1.1327    2.0955   -0.6424 O   0  0  0  0  0  0
   -1.3864    1.3650    0.5509 C   0  0  0  0  0  0
   -0.5461    0.0820    0.5554 C   0  0  0  0  0  0
    0.8305    0.4202    0.6628 O   0  0  0  0  0  0
    1.6991   -0.7049    0.6354 C   0  0  0  0  0  0
    3.1440   -0.2401    0.8561 C   0  0  0  0  0  0
    3.2729    0.2879    2.1700 O   0  0  0  0  0  0
    4.5883    0.7230    2.4845 C   0  0  0  0  0  0
    4.6132    1.2559    3.9221 C   0  0  0  0  0  0
    5.9463    1.6094    4.2594 O   0  0  0  0  0  0
    6.0943    2.1137    5.5805 C   0  0  0  0  0  0
    7.5812    2.3897    5.8318 C   0  0  0  0  0  0
    8.2883    1.1493    5.8265 O   0  0  0  0  0  0
    9.6544    1.2047    5.4239 C   0  0  0  0  0  0
    9.8273    1.3845    3.9698 C   0  0  0  0  0  0
    9.9180    1.5437    2.7623 C   0  0  0  0  0  0
    9.9852    1.7480    1.3233 C   0  0  0  0  0  0
   11.1128    1.3363    0.6120 C   0  0  0  0  0  0
   11.1735    1.5391   -0.7641 C   0  0  0  0  0  0
    8.9193    2.3568    0.6594 C   0  0  0  0  0  0
    8.9842    2.5593   -0.7168 C   0  0  0  0  0  0
   10.1178    2.1534   -1.4393 C   0  0  0  0  0  0
   10.2728    2.3186   -2.8020 O   0  0  0  0  0  0
    9.2828    3.0343   -3.5374 C   0  0  0  0  0  0
    9.7285    3.1689   -5.0017 C   0  0  0  0  0  0
   11.0429    3.9544   -5.1697 C   0  0  0  0  0  0
   11.4107    4.1422   -6.6305 C   0  0  0  0  0  0
   11.2077    5.2125   -7.5271 C   0  0  0  0  0  0
   10.5061    6.4500   -7.2238 C   0  0  0  0  0  0
    9.8263    6.6054   -6.2104 O   0  0  0  0  0  0
   10.6843    7.4337   -8.1600 O   0  0  0  0  0  0
   12.2342    2.8752   -7.5068 S   0  0  0  0  0  0
   12.2423    3.8641   -8.9317 C   0  0  0  0  0  0
   11.6754    5.0299   -8.7547 N   0  0  0  0  0  0
   12.8164    3.4355  -10.1069 N   0  0  0  0  0  0
   13.2872    2.0652  -10.3359 C   0  0  0  0  0  0
   14.5524    2.0449  -11.2123 C   0  0  0  0  0  0
   14.4127    2.8823  -12.4757 C   0  0  0  0  0  0
   13.4063    3.8678  -12.5723 C   0  0  0  0  0  0
   12.4330    4.0487  -11.3913 C   0  0  0  0  0  0
   15.2939    2.6805  -13.5407 C   0  0  0  0  0  0
   15.1880    3.4206  -14.7093 C   0  0  0  0  0  0
   14.1915    4.3789  -14.8255 C   0  0  0  0  0  0
   13.2955    4.6139  -13.7735 C   0  0  0  0  0  0
   12.2353    5.6742  -13.9622 C   0  0  0  0  0  0
   12.0916    6.5707  -13.1288 O   0  0  0  0  0  0
   11.5066    5.5447  -15.0948 N   0  0  0  0  0  0
   10.4760    6.3714  -15.5176 C   0  0  0  0  0  0
    9.9754    7.3999  -14.8811 N   0  0  0  0  0  0
    8.9772    7.9848  -15.5947 C   0  0  0  0  0  0
    8.6940    7.3745  -16.8469 C   0  0  0  0  0  0
    9.7706    6.0020  -17.0730 S   0  0  0  0  0  0
    8.2449    9.1086  -15.1813 C   0  0  0  0  0  0
    7.2486    9.5989  -16.0275 C   0  0  0  0  0  0
    6.9775    8.9955  -17.2555 C   0  0  0  0  0  0
    7.6906    7.8766  -17.6872 C   0  0  0  0  0  0
  -10.1201    1.8763  -21.3259 H   0  0  0  0  0  0
  -10.2803    1.9754  -16.0753 H   0  0  0  0  0  0
   -9.8421    1.4262  -13.7229 H   0  0  0  0  0  0
   -5.9272    0.0030  -14.7817 H   0  0  0  0  0  0
   -6.7420    3.1955  -10.0725 H   0  0  0  0  0  0
   -7.0958    5.3000  -10.7325 H   0  0  0  0  0  0
   -7.1887    4.6345  -12.3693 H   0  0  0  0  0  0
   -2.3829    4.1637   -9.2812 H   0  0  0  0  0  0
    0.2163    2.5852   -8.6557 H   0  0  0  0  0  0
    0.8109    2.5778  -10.3029 H   0  0  0  0  0  0
    0.0723    4.0291   -9.6476 H   0  0  0  0  0  0
   -7.9108    1.6686  -11.0210 H   0  0  0  0  0  0
   -8.4829   -0.1376  -12.2245 H   0  0  0  0  0  0
   -6.7993   -0.4129  -12.5496 H   0  0  0  0  0  0
   -6.3645    0.5459  -17.1349 H   0  0  0  0  0  0
   -6.1065    2.9072  -17.9385 H   0  0  0  0  0  0
   -5.6628    2.2859  -19.5158 H   0  0  0  0  0  0
   -6.3558    3.8908  -19.3591 H   0  0  0  0  0  0
   -4.8428    5.0798  -12.7732 H   0  0  0  0  0  0
   -4.5053    7.2452  -12.1019 H   0  0  0  0  0  0
   -4.4650    5.6204   -9.7992 H   0  0  0  0  0  0
   -3.2507    5.1376  -10.9846 H   0  0  0  0  0  0
   -2.4634    2.6200  -12.0911 H   0  0  0  0  0  0
   -1.4605    4.0198  -11.7269 H   0  0  0  0  0  0
   -0.7258    2.5244  -12.2679 H   0  0  0  0  0  0
   -2.2981    0.5013  -10.5852 H   0  0  0  0  0  0
   -0.5547    0.5033  -10.7171 H   0  0  0  0  0  0
   -1.3065    0.5211   -9.1327 H   0  0  0  0  0  0
   -1.8380    1.8652   -7.6698 H   0  0  0  0  0  0
   -2.0457    1.8768   -5.4624 H   0  0  0  0  0  0
   -3.6435    2.4256   -5.0544 H   0  0  0  0  0  0
   -2.6470    4.6963   -4.3925 H   0  0  0  0  0  0
   -1.0512    4.0099   -4.6641 H   0  0  0  0  0  0
   -2.0403    4.9814   -2.0858 H   0  0  0  0  0  0
   -0.5128    4.1178   -2.2405 H   0  0  0  0  0  0
   -2.9058    3.1657   -0.5798 H   0  0  0  0  0  0
   -1.5019    3.9939    0.0859 H   0  0  0  0  0  0
   -2.4457    1.1096    0.6138 H   0  0  0  0  0  0
   -1.1421    1.9696    1.4265 H   0  0  0  0  0  0
   -0.7290   -0.4845   -0.3597 H   0  0  0  0  0  0
   -0.8426   -0.5473    1.3964 H   0  0  0  0  0  0
    1.6172   -1.2151   -0.3258 H   0  0  0  0  0  0
    1.4213   -1.4203    1.4121 H   0  0  0  0  0  0
    3.4079    0.5191    0.1175 H   0  0  0  0  0  0
    3.8241   -1.0828    0.7198 H   0  0  0  0  0  0
    4.9120    1.5034    1.7931 H   0  0  0  0  0  0
    5.2926   -0.1056    2.3876 H   0  0  0  0  0  0
    4.2423    0.4900    4.6060 H   0  0  0  0  0  0
    3.9504    2.1186    4.0118 H   0  0  0  0  0  0
    5.7213    1.3915    6.3094 H   0  0  0  0  0  0
    5.5186    3.0333    5.6988 H   0  0  0  0  0  0
    7.7244    2.8760    6.7973 H   0  0  0  0  0  0
    7.9480    3.0806    5.0702 H   0  0  0  0  0  0
   10.1321    0.2624    5.6922 H   0  0  0  0  0  0
   10.1884    1.9968    5.9514 H   0  0  0  0  0  0
   11.9441    0.8619    1.1147 H   0  0  0  0  0  0
   12.0495    1.2211   -1.3103 H   0  0  0  0  0  0
    8.0392    2.6763    1.2003 H   0  0  0  0  0  0
    8.1455    3.0321   -1.2045 H   0  0  0  0  0  0
    9.1286    4.0271   -3.1095 H   0  0  0  0  0  0
    8.3301    2.5033   -3.4937 H   0  0  0  0  0  0
    8.9360    3.6682   -5.5614 H   0  0  0  0  0  0
    9.8319    2.1749   -5.4394 H   0  0  0  0  0  0
   11.8484    3.4304   -4.6535 H   0  0  0  0  0  0
   10.9568    4.9163   -4.6651 H   0  0  0  0  0  0
   12.4802    1.4693  -10.7653 H   0  0  0  0  0  0
   13.5466    1.5760   -9.3979 H   0  0  0  0  0  0
   14.7916    1.0119  -11.4688 H   0  0  0  0  0  0
   15.4000    2.4250  -10.6399 H   0  0  0  0  0  0
   12.3134    5.1155  -11.2125 H   0  0  0  0  0  0
   11.4495    3.6753  -11.6802 H   0  0  0  0  0  0
   16.0704    1.9335  -13.4616 H   0  0  0  0  0  0
   15.8764    3.2507  -15.5241 H   0  0  0  0  0  0
   14.1272    4.9461  -15.7437 H   0  0  0  0  0  0
   11.7360    4.7782  -15.7098 H   0  0  0  0  0  0
    8.4433    9.5871  -14.2334 H   0  0  0  0  0  0
    6.6761   10.4636  -15.7252 H   0  0  0  0  0  0
    6.1999    9.4035  -17.8846 H   0  0  0  0  0  0
    7.4738    7.4158  -18.6398 H   0  0  0  0  0  0
   10.2177    8.2419   -7.9364 H   0  0  0  0  0  0
  1 20  2  0  0  0
  1 21  1  0  0  0
  1 94  1  0  0  0
  2 16  1  0  0  0
  2 17  1  0  0  0
  2  3  2  0  0  0
  3  4  1  0  0  0
  3 95  1  0  0  0
  4 15  2  0  0  0
  4 96  1  0  0  0
  5 15  1  0  0  0
  5 16  2  0  0  0
  5 97  1  0  0  0
  6 12  1  0  0  0
  6  7  1  0  0  0
  6 25  1  0  0  0
  6 98  1  0  0  0
  7 22  1  0  0  0
  7 99  1  0  0  0
  7100  1  0  0  0
  8  9  1  0  0  0
  8 25  1  0  0  0
  8 26  2  0  0  0
  9 27  1  0  0  0
  9 30  1  0  0  0
  9101  1  0  0  0
 10 27  1  0  0  0
 10102  1  0  0  0
 10103  1  0  0  0
 10104  1  0  0  0
 11 12  2  0  0  0
 12 13  1  0  0  0
 13 14  1  0  0  0
 13105  1  0  0  0
 14 15  1  0  0  0
 14106  1  0  0  0
 14107  1  0  0  0
 16108  1  0  0  0
 17 18  2  0  0  0
 17 21  1  0  0  0
 18 19  1  0  0  0
 18 20  1  0  0  0
 19109  1  0  0  0
 19110  1  0  0  0
 19111  1  0  0  0
 22 24  1  0  0  0
 22 23  1  0  0  0
 22112  1  0  0  0
 23113  1  0  0  0
 24 25  1  0  0  0
 24114  1  0  0  0
 24115  1  0  0  0
 27 28  1  0  0  0
 27 29  1  0  0  0
 28116  1  0  0  0
 28117  1  0  0  0
 28118  1  0  0  0
 29119  1  0  0  0
 29120  1  0  0  0
 29121  1  0  0  0
 30 31  1  0  0  0
 30122  1  0  0  0
 31 32  2  0  0  0
 31 33  1  0  0  0
 33 34  1  0  0  0
 33123  1  0  0  0
 33124  1  0  0  0
 34 35  1  0  0  0
 34125  1  0  0  0
 34126  1  0  0  0
 35 36  1  0  0  0
 36 37  1  0  0  0
 36127  1  0  0  0
 36128  1  0  0  0
 37 38  1  0  0  0
 37129  1  0  0  0
 37130  1  0  0  0
 38 39  1  0  0  0
 39 40  1  0  0  0
 39131  1  0  0  0
 39132  1  0  0  0
 40 41  1  0  0  0
 40133  1  0  0  0
 40134  1  0  0  0
 41 42  1  0  0  0
 42 43  1  0  0  0
 42135  1  0  0  0
 42136  1  0  0  0
 43 44  1  0  0  0
 43137  1  0  0  0
 43138  1  0  0  0
 44 45  1  0  0  0
 45 46  1  0  0  0
 45139  1  0  0  0
 45140  1  0  0  0
 46 47  1  0  0  0
 46141  1  0  0  0
 46142  1  0  0  0
 47 48  1  0  0  0
 48 49  1  0  0  0
 48143  1  0  0  0
 48144  1  0  0  0
 49 50  1  0  0  0
 49145  1  0  0  0
 49146  1  0  0  0
 50 51  1  0  0  0
 51 52  1  0  0  0
 51147  1  0  0  0
 51148  1  0  0  0
 52 53  3  0  0  0
 53 54  1  0  0  0
 54 57  1  0  0  0
 54 55  2  0  0  0
 55 56  1  0  0  0
 55149  1  0  0  0
 56 59  2  0  0  0
 56150  1  0  0  0
 57 58  2  0  0  0
 57151  1  0  0  0
 58 59  1  0  0  0
 58152  1  0  0  0
 59 60  1  0  0  0
 60 61  1  0  0  0
 61 62  1  0  0  0
 61153  1  0  0  0
 61154  1  0  0  0
 62 63  1  0  0  0
 62155  1  0  0  0
 62156  1  0  0  0
 63 64  1  0  0  0
 63157  1  0  0  0
 63158  1  0  0  0
 64 65  2  0  0  0
 64 69  1  0  0  0
 65 66  1  0  0  0
 65 71  1  0  0  0
 66 67  2  0  0  0
 66 68  1  0  0  0
 68173  1  0  0  0
 69 70  1  0  0  0
 70 71  2  0  0  0
 70 72  1  0  0  0
 72 77  1  0  0  0
 72 73  1  0  0  0
 73 74  1  0  0  0
 73159  1  0  0  0
 73160  1  0  0  0
 74 75  1  0  0  0
 74161  1  0  0  0
 74162  1  0  0  0
 75 76  1  0  0  0
 75 78  2  0  0  0
 76 81  2  0  0  0
 76 77  1  0  0  0
 77163  1  0  0  0
 77164  1  0  0  0
 78 79  1  0  0  0
 78165  1  0  0  0
 79 80  2  0  0  0
 79166  1  0  0  0
 80 81  1  0  0  0
 80167  1  0  0  0
 81 82  1  0  0  0
 82 83  2  0  0  0
 82 84  1  0  0  0
 84 85  1  0  0  0
 84168  1  0  0  0
 85 86  2  0  0  0
 85 89  1  0  0  0
 86 87  1  0  0  0
 87 88  2  0  0  0
 87 90  1  0  0  0
 88 89  1  0  0  0
 88 93  1  0  0  0
 90 91  2  0  0  0
 90169  1  0  0  0
 91 92  1  0  0  0
 91170  1  0  0  0
 92 93  2  0  0  0
 92171  1  0  0  0
 93172  1  0  0  0
M  END
> <s_m_entry_id>
19

> <s_m_entry_name>
6zhc.1_mol2

> <s_m_source_file>
ligprep_1.maegz

> <i_m_source_file_index>
1

> <i_lp_mmshare_version>
38013

> <i_f3d_flags>
0

> <s_lp_Force_Field>
OPLS3

> <r_lp_Energy>
105.789671894948

> <b_lp_Chiralities_Consistent>
1

> <s_lp_Variant>
ligand-1

> <s_m_job_name>
ligprep_1

> <s_m_subgroup_title>
ligprep_1-out1

> <s_m_subgroupid>
ligprep_1-out1

> <b_m_subgroup_collapsed>
0

$$$$
